*SPEF "ieee 1481-1999"
*DESIGN "cust_rom0"
*DATE "06:59:17 Monday September 30, 2024"
*VENDOR "The OpenROAD Project"
*PROGRAM "OpenROAD"
*VERSION "b16bda7e82721d10566ff7e2b68f1ff0be9f9e38"
*DESIGN_FLOW "NAME_SCOPE LOCAL" "PIN_CAP NONE"
*DIVIDER /
*DELIMITER :
*BUS_DELIMITER []
*T_UNIT 1 NS
*C_UNIT 1 PF
*R_UNIT 1 OHM
*L_UNIT 1 HENRY

*NAME_MAP
*1 addr0[0]
*2 addr0[1]
*3 addr0[2]
*4 addr0[3]
*5 addr0[4]
*6 addr0[5]
*7 addr0[6]
*8 addr0[7]
*9 clk0
*10 cs0
*11 dout0[0]
*12 dout0[10]
*13 dout0[11]
*14 dout0[12]
*15 dout0[13]
*16 dout0[14]
*17 dout0[15]
*18 dout0[16]
*19 dout0[17]
*20 dout0[18]
*21 dout0[19]
*22 dout0[1]
*23 dout0[20]
*24 dout0[21]
*25 dout0[22]
*26 dout0[23]
*27 dout0[24]
*28 dout0[25]
*29 dout0[26]
*30 dout0[27]
*31 dout0[28]
*32 dout0[29]
*33 dout0[2]
*34 dout0[30]
*35 net630
*36 dout0[3]
*37 dout0[4]
*38 dout0[5]
*39 dout0[6]
*40 dout0[7]
*41 dout0[8]
*42 dout0[9]
*45 _0000_
*46 _0001_
*47 _0002_
*48 _0003_
*49 _0004_
*50 _0005_
*51 _0006_
*52 _0007_
*53 _0008_
*54 _0009_
*55 _0010_
*56 _0011_
*57 _0012_
*58 _0013_
*59 _0014_
*60 _0015_
*61 _0016_
*62 _0017_
*63 _0018_
*64 _0019_
*65 _0020_
*66 _0021_
*67 _0022_
*68 _0023_
*69 _0024_
*70 _0025_
*71 _0026_
*72 _0027_
*73 _0028_
*74 _0029_
*75 _0030_
*76 _0031_
*77 _0032_
*78 _0033_
*79 _0034_
*80 _0035_
*81 _0036_
*82 _0037_
*83 _0038_
*84 _0039_
*85 _0040_
*86 _0041_
*87 _0042_
*88 _0043_
*89 _0044_
*90 _0045_
*91 _0046_
*92 _0047_
*93 _0048_
*94 _0049_
*95 _0050_
*96 _0051_
*97 _0052_
*98 _0053_
*99 _0054_
*100 _0055_
*101 _0056_
*102 _0057_
*103 _0058_
*104 _0059_
*105 _0060_
*106 _0061_
*107 _0062_
*108 _0063_
*109 _0064_
*110 _0065_
*111 _0066_
*112 _0067_
*113 _0068_
*114 _0069_
*115 _0070_
*116 _0071_
*117 _0072_
*118 _0073_
*119 _0074_
*120 _0075_
*121 _0076_
*122 _0077_
*123 _0078_
*124 _0079_
*125 _0080_
*126 _0081_
*127 _0082_
*128 _0083_
*129 _0084_
*130 _0085_
*131 _0086_
*132 _0087_
*133 _0088_
*134 _0089_
*135 _0090_
*136 _0091_
*137 _0092_
*138 _0093_
*139 _0094_
*140 _0095_
*141 _0096_
*142 _0097_
*143 _0098_
*144 _0099_
*145 _0100_
*146 _0101_
*147 _0102_
*148 _0103_
*149 _0104_
*150 _0105_
*151 _0106_
*152 _0107_
*153 _0108_
*154 _0109_
*155 _0110_
*156 _0111_
*157 _0112_
*158 _0113_
*159 _0114_
*160 _0115_
*161 _0116_
*162 _0117_
*163 _0118_
*164 _0119_
*165 _0120_
*166 _0121_
*167 _0122_
*168 _0123_
*169 _0124_
*170 _0125_
*171 _0126_
*172 _0127_
*173 _0128_
*174 _0129_
*175 _0130_
*176 _0131_
*177 _0132_
*178 _0133_
*179 _0134_
*180 _0135_
*181 _0136_
*182 _0137_
*183 _0138_
*184 _0139_
*185 _0140_
*186 _0141_
*187 _0142_
*188 _0143_
*189 _0144_
*190 _0145_
*191 _0146_
*192 _0147_
*193 _0148_
*194 _0149_
*195 _0150_
*196 _0151_
*197 _0152_
*198 _0153_
*199 _0154_
*200 _0155_
*201 _0156_
*202 _0157_
*203 _0158_
*204 _0159_
*205 _0160_
*206 _0161_
*207 _0162_
*208 _0163_
*209 _0164_
*210 _0165_
*211 _0166_
*212 _0167_
*213 _0168_
*214 _0169_
*215 _0170_
*216 _0171_
*217 _0172_
*218 _0173_
*219 _0174_
*220 _0175_
*221 _0176_
*222 _0177_
*223 _0178_
*224 _0179_
*225 _0180_
*226 _0181_
*227 _0182_
*228 _0183_
*229 _0184_
*230 _0185_
*231 _0186_
*232 _0187_
*233 _0188_
*234 _0189_
*235 _0190_
*236 _0191_
*237 _0192_
*238 _0193_
*239 _0194_
*240 _0195_
*241 _0196_
*242 _0197_
*243 _0198_
*244 _0199_
*245 _0200_
*246 _0201_
*247 _0202_
*248 _0203_
*249 _0204_
*250 _0205_
*251 _0206_
*252 _0207_
*253 _0208_
*254 _0209_
*255 _0210_
*256 _0211_
*257 _0212_
*258 _0213_
*259 _0214_
*260 _0215_
*261 _0216_
*262 _0217_
*263 _0218_
*264 _0219_
*265 _0220_
*266 _0221_
*267 _0222_
*268 _0223_
*269 _0224_
*270 _0225_
*271 _0226_
*272 _0227_
*273 _0228_
*274 _0229_
*275 _0230_
*276 _0231_
*277 _0232_
*278 _0233_
*279 _0234_
*280 _0235_
*281 _0236_
*282 _0237_
*283 _0238_
*284 _0239_
*285 _0240_
*286 _0241_
*287 _0242_
*288 _0243_
*289 _0244_
*290 _0245_
*291 _0246_
*292 _0247_
*293 _0248_
*294 _0249_
*295 _0250_
*296 _0251_
*297 _0252_
*298 _0253_
*299 _0254_
*300 _0255_
*301 _0256_
*302 _0257_
*303 _0258_
*304 _0259_
*305 _0260_
*306 _0261_
*307 _0262_
*308 _0263_
*309 _0264_
*310 _0265_
*311 _0266_
*312 _0267_
*313 _0268_
*314 _0269_
*315 _0270_
*316 _0271_
*317 _0272_
*318 _0273_
*319 _0274_
*320 _0275_
*321 _0276_
*322 _0277_
*323 _0278_
*324 _0279_
*325 _0280_
*326 _0281_
*327 _0282_
*328 _0283_
*329 _0284_
*330 _0285_
*331 _0286_
*332 _0287_
*333 _0288_
*334 _0289_
*335 _0290_
*336 _0291_
*337 _0292_
*338 _0293_
*339 _0294_
*340 _0295_
*341 _0296_
*342 _0297_
*343 _0298_
*344 _0299_
*345 _0300_
*346 _0301_
*347 _0302_
*348 _0303_
*349 _0304_
*350 _0305_
*351 _0306_
*352 _0307_
*353 _0308_
*354 _0309_
*355 _0310_
*356 _0311_
*357 _0312_
*358 _0313_
*359 _0314_
*360 _0315_
*361 _0316_
*362 _0317_
*363 _0318_
*364 _0319_
*365 _0320_
*366 _0321_
*367 _0322_
*368 _0323_
*369 _0324_
*370 _0325_
*371 _0326_
*372 _0327_
*373 _0328_
*374 _0329_
*375 _0330_
*376 _0331_
*377 _0332_
*378 _0333_
*379 _0334_
*380 _0335_
*381 _0336_
*382 _0337_
*383 _0338_
*384 _0339_
*385 _0340_
*386 _0341_
*387 _0342_
*388 _0343_
*389 _0344_
*390 _0345_
*391 _0346_
*392 _0347_
*393 _0348_
*394 _0349_
*395 _0350_
*396 _0351_
*397 _0352_
*398 _0353_
*399 _0354_
*400 _0355_
*401 _0356_
*402 _0357_
*403 _0358_
*404 _0359_
*405 _0360_
*406 _0361_
*407 _0362_
*408 _0363_
*409 _0364_
*410 _0365_
*411 _0366_
*412 _0367_
*413 _0368_
*414 _0369_
*415 _0370_
*416 _0371_
*417 _0372_
*418 _0373_
*419 _0374_
*420 _0375_
*421 _0376_
*422 _0377_
*423 _0378_
*424 _0379_
*425 _0380_
*426 _0381_
*427 _0382_
*428 _0383_
*429 _0384_
*430 _0385_
*431 _0386_
*432 _0387_
*433 _0388_
*434 _0389_
*435 _0390_
*436 _0391_
*437 _0392_
*438 _0393_
*439 _0394_
*440 _0395_
*441 _0396_
*442 _0397_
*443 _0398_
*444 _0399_
*445 _0400_
*446 _0401_
*447 _0402_
*448 _0403_
*449 _0404_
*450 _0405_
*451 _0406_
*452 _0407_
*453 _0408_
*454 _0409_
*455 _0410_
*456 _0411_
*457 _0412_
*458 _0413_
*459 _0414_
*460 _0415_
*461 _0416_
*462 _0417_
*463 _0418_
*464 _0419_
*465 _0420_
*466 _0421_
*467 _0422_
*468 _0423_
*469 _0424_
*470 _0425_
*471 _0426_
*472 _0427_
*473 _0428_
*474 _0429_
*475 _0430_
*476 _0431_
*477 _0432_
*478 _0433_
*479 _0434_
*480 _0435_
*481 _0436_
*482 _0437_
*483 _0438_
*484 _0439_
*485 _0440_
*486 _0441_
*487 _0442_
*488 _0443_
*489 _0444_
*490 _0445_
*491 _0446_
*492 _0447_
*493 _0448_
*494 _0449_
*495 _0450_
*496 _0451_
*497 _0452_
*498 _0453_
*499 _0454_
*500 _0455_
*501 _0456_
*502 _0457_
*503 _0458_
*504 _0459_
*505 _0460_
*506 _0461_
*507 _0462_
*508 _0463_
*509 _0464_
*510 _0465_
*511 _0466_
*512 _0467_
*513 _0468_
*514 _0469_
*515 _0470_
*516 _0471_
*517 _0472_
*518 _0473_
*519 _0474_
*520 _0475_
*521 _0476_
*522 _0477_
*523 _0478_
*524 _0479_
*525 _0480_
*526 _0481_
*527 _0482_
*528 _0483_
*529 _0484_
*530 _0485_
*531 _0486_
*532 _0487_
*533 _0488_
*534 _0489_
*535 _0490_
*536 _0491_
*537 _0492_
*538 _0493_
*539 _0494_
*540 _0495_
*541 _0496_
*542 _0497_
*543 _0498_
*544 _0499_
*545 _0500_
*546 _0501_
*547 _0502_
*548 _0503_
*549 _0504_
*550 _0505_
*551 _0506_
*552 _0507_
*553 _0508_
*554 _0509_
*555 _0510_
*556 _0511_
*557 _0512_
*558 _0513_
*559 _0514_
*560 _0515_
*561 _0516_
*562 _0517_
*563 _0518_
*564 _0519_
*565 _0520_
*566 _0521_
*567 _0522_
*568 _0523_
*569 _0524_
*570 _0525_
*571 _0526_
*572 _0527_
*573 _0528_
*574 _0529_
*575 _0530_
*576 _0531_
*577 _0532_
*578 _0533_
*579 _0534_
*580 _0535_
*581 _0536_
*582 _0537_
*583 _0538_
*584 _0539_
*585 _0540_
*586 _0541_
*587 _0542_
*588 _0543_
*589 _0544_
*590 _0545_
*591 _0546_
*592 _0547_
*593 _0548_
*594 _0549_
*595 _0550_
*596 _0551_
*597 _0552_
*598 _0553_
*599 _0554_
*600 _0555_
*601 _0556_
*602 _0557_
*603 _0558_
*604 _0559_
*605 _0560_
*606 _0561_
*607 _0562_
*608 _0563_
*609 _0564_
*610 _0565_
*611 _0566_
*612 _0567_
*613 _0568_
*614 _0569_
*615 _0570_
*616 _0571_
*617 _0572_
*618 _0573_
*619 _0574_
*620 _0575_
*621 _0576_
*622 _0577_
*623 _0578_
*624 _0579_
*625 _0580_
*626 _0581_
*627 _0582_
*628 _0583_
*629 _0584_
*630 _0585_
*631 _0586_
*632 _0587_
*633 _0588_
*634 _0589_
*635 _0590_
*636 _0591_
*637 _0592_
*638 _0593_
*639 _0594_
*640 _0595_
*641 _0596_
*642 _0597_
*643 _0598_
*644 _0599_
*645 _0600_
*646 _0601_
*647 _0602_
*648 _0603_
*649 _0604_
*650 _0605_
*651 _0606_
*652 _0607_
*653 _0608_
*654 _0609_
*655 _0610_
*656 _0611_
*657 _0612_
*658 _0613_
*659 _0614_
*660 _0615_
*661 _0616_
*662 _0617_
*663 _0618_
*664 _0619_
*665 _0620_
*666 _0621_
*667 _0622_
*668 _0623_
*669 _0624_
*670 _0625_
*671 _0626_
*672 _0627_
*673 _0628_
*674 _0629_
*675 _0630_
*676 _0631_
*677 _0632_
*678 _0633_
*679 _0634_
*680 _0635_
*681 _0636_
*682 _0637_
*683 _0638_
*684 _0639_
*685 _0640_
*686 _0641_
*687 _0642_
*688 _0643_
*689 _0644_
*690 _0645_
*691 _0646_
*692 _0647_
*693 _0648_
*694 _0649_
*695 _0650_
*696 _0651_
*697 _0652_
*698 _0653_
*699 _0654_
*700 _0655_
*701 _0656_
*702 _0657_
*703 _0658_
*704 _0659_
*705 _0660_
*706 _0661_
*707 _0662_
*708 _0663_
*709 _0664_
*710 _0665_
*711 _0666_
*712 _0667_
*713 _0668_
*714 _0669_
*715 _0670_
*716 _0671_
*717 _0672_
*718 _0673_
*719 _0674_
*720 _0675_
*721 _0676_
*722 _0677_
*723 _0678_
*724 _0679_
*725 _0680_
*726 _0681_
*727 _0682_
*728 _0683_
*729 _0684_
*730 _0685_
*731 _0686_
*732 _0687_
*733 _0688_
*734 _0689_
*735 _0690_
*736 _0691_
*737 _0692_
*738 _0693_
*739 _0694_
*740 _0695_
*741 _0696_
*742 _0697_
*743 _0698_
*744 _0699_
*745 _0700_
*746 _0701_
*747 _0702_
*748 _0703_
*749 _0704_
*750 _0705_
*751 _0706_
*752 _0707_
*753 _0708_
*754 _0709_
*755 _0710_
*756 _0711_
*757 _0712_
*758 _0713_
*759 _0714_
*760 _0715_
*761 addr0_reg\[0\]
*762 addr0_reg\[1\]
*763 addr0_reg\[2\]
*764 addr0_reg\[3\]
*765 addr0_reg\[4\]
*766 addr0_reg\[5\]
*767 addr0_reg\[6\]
*768 addr0_reg\[7\]
*769 clknet_0_clk0
*770 clknet_2_0__leaf_clk0
*771 clknet_2_1__leaf_clk0
*772 clknet_2_2__leaf_clk0
*773 clknet_2_3__leaf_clk0
*774 cs0_reg
*775 net1
*776 net10
*777 net100
*778 net101
*779 net102
*780 net103
*781 net104
*782 net105
*783 net106
*784 net107
*785 net108
*786 net109
*787 net11
*788 net110
*789 net111
*790 net112
*791 net113
*792 net114
*793 net115
*794 net116
*795 net117
*796 net118
*797 net119
*798 net12
*799 net120
*800 net121
*801 net122
*802 net123
*803 net124
*804 net125
*805 net126
*806 net127
*807 net128
*808 net129
*809 net13
*810 net130
*811 net131
*812 net132
*813 net133
*814 net134
*815 net135
*816 net136
*817 net137
*818 net138
*819 net139
*820 net14
*821 net140
*822 net141
*823 net142
*824 net143
*825 net144
*826 net145
*827 net146
*828 net147
*829 net148
*830 net149
*831 net15
*832 net150
*833 net151
*834 net152
*835 net153
*836 net154
*837 net155
*838 net156
*839 net157
*840 net158
*841 net159
*842 net16
*843 net160
*844 net161
*845 net162
*846 net163
*847 net164
*848 net165
*849 net166
*850 net167
*851 net168
*852 net169
*853 net17
*854 net170
*855 net171
*856 net172
*857 net173
*858 net174
*859 net175
*860 net176
*861 net177
*862 net178
*863 net179
*864 net18
*865 net180
*866 net181
*867 net182
*868 net183
*869 net184
*870 net185
*871 net186
*872 net187
*873 net188
*874 net189
*875 net19
*876 net190
*877 net191
*878 net192
*879 net193
*880 net194
*881 net195
*882 net196
*883 net197
*884 net198
*885 net199
*886 net2
*887 net20
*888 net200
*889 net201
*890 net202
*891 net203
*892 net204
*893 net205
*894 net206
*895 net207
*896 net208
*897 net209
*898 net21
*899 net210
*900 net211
*901 net212
*902 net213
*903 net214
*904 net215
*905 net216
*906 net217
*907 net218
*908 net219
*909 net22
*910 net220
*911 net221
*912 net222
*913 net223
*914 net224
*915 net225
*916 net226
*917 net227
*918 net228
*919 net229
*920 net23
*921 net230
*922 net231
*923 net232
*924 net233
*925 net234
*926 net235
*927 net236
*928 net237
*929 net238
*930 net239
*931 net24
*932 net240
*933 net241
*934 net242
*935 net243
*936 net244
*937 net245
*938 net246
*939 net247
*940 net248
*941 net249
*942 net25
*943 net250
*944 net251
*945 net252
*946 net253
*947 net254
*948 net255
*949 net256
*950 net257
*951 net258
*952 net259
*953 net26
*954 net260
*955 net261
*956 net262
*957 net263
*958 net264
*959 net265
*960 net266
*961 net267
*962 net268
*963 net269
*964 net27
*965 net270
*966 net271
*967 net272
*968 net273
*969 net274
*970 net275
*971 net276
*972 net277
*973 net278
*974 net279
*975 net28
*976 net280
*977 net281
*978 net282
*979 net283
*980 net284
*981 net285
*982 net286
*983 net287
*984 net288
*985 net289
*986 net29
*987 net290
*988 net291
*989 net292
*990 net293
*991 net294
*992 net295
*993 net296
*994 net297
*995 net298
*996 net299
*997 net3
*998 net30
*999 net300
*1000 net301
*1001 net302
*1002 net303
*1003 net304
*1004 net305
*1005 net306
*1006 net307
*1007 net308
*1008 net309
*1009 net31
*1010 net310
*1011 net311
*1012 net312
*1013 net313
*1014 net314
*1015 net315
*1016 net316
*1017 net317
*1018 net318
*1019 net319
*1020 net32
*1021 net320
*1022 net321
*1023 net322
*1024 net323
*1025 net324
*1026 net325
*1027 net326
*1028 net327
*1029 net328
*1030 net329
*1031 net33
*1032 net330
*1033 net331
*1034 net332
*1035 net333
*1036 net334
*1037 net335
*1038 net336
*1039 net337
*1040 net338
*1041 net339
*1042 net34
*1043 net340
*1044 net341
*1045 net342
*1046 net343
*1047 net344
*1048 net345
*1049 net346
*1050 net347
*1051 net348
*1052 net349
*1053 net35
*1054 net350
*1055 net351
*1056 net352
*1057 net353
*1058 net354
*1059 net355
*1060 net356
*1061 net357
*1062 net358
*1063 net359
*1064 net36
*1065 net360
*1066 net361
*1067 net362
*1068 net363
*1069 net364
*1070 net365
*1071 net366
*1072 net367
*1073 net368
*1074 net369
*1075 net37
*1076 net370
*1077 net371
*1078 net372
*1079 net373
*1080 net374
*1081 net375
*1082 net376
*1083 net377
*1084 net378
*1085 net379
*1086 net38
*1087 net380
*1088 net381
*1089 net382
*1090 net383
*1091 net384
*1092 net385
*1093 net386
*1094 net387
*1095 net388
*1096 net389
*1097 net39
*1098 net390
*1099 net391
*1100 net392
*1101 net393
*1102 net394
*1103 net395
*1104 net396
*1105 net397
*1106 net398
*1107 net399
*1108 net4
*1109 net40
*1110 net400
*1111 net401
*1112 net402
*1113 net403
*1114 net404
*1115 net405
*1116 net406
*1117 net407
*1118 net408
*1119 net409
*1120 net41
*1121 net410
*1122 net411
*1123 net412
*1124 net413
*1125 net414
*1126 net415
*1127 net416
*1128 net417
*1129 net418
*1130 net419
*1131 net42
*1132 net420
*1133 net421
*1134 net422
*1135 net423
*1136 net424
*1137 net425
*1138 net426
*1139 net427
*1140 net428
*1141 net429
*1142 net43
*1143 net430
*1144 net431
*1145 net432
*1146 net433
*1147 net434
*1148 net435
*1149 net436
*1150 net437
*1151 net438
*1152 net439
*1153 net44
*1154 net440
*1155 net441
*1156 net442
*1157 net443
*1158 net444
*1159 net445
*1160 net446
*1161 net447
*1162 net448
*1163 net449
*1164 net45
*1165 net450
*1166 net451
*1167 net452
*1168 net453
*1169 net454
*1170 net455
*1171 net456
*1172 net457
*1173 net458
*1174 net459
*1175 net46
*1176 net460
*1177 net461
*1178 net462
*1179 net463
*1180 net464
*1181 net465
*1182 net466
*1183 net467
*1184 net468
*1185 net469
*1186 net47
*1187 net470
*1188 net471
*1189 net472
*1190 net473
*1191 net474
*1192 net475
*1193 net476
*1194 net477
*1195 net478
*1196 net479
*1197 net48
*1198 net480
*1199 net481
*1200 net482
*1201 net483
*1202 net484
*1203 net485
*1204 net486
*1205 net487
*1206 net488
*1207 net489
*1208 net49
*1209 net490
*1210 net491
*1211 net492
*1212 net493
*1213 net494
*1214 net495
*1215 net496
*1216 net497
*1217 net498
*1218 net499
*1219 net5
*1220 net50
*1221 net500
*1222 net501
*1223 net502
*1224 net503
*1225 net504
*1226 net505
*1227 net506
*1228 net507
*1229 net508
*1230 net509
*1231 net51
*1232 net510
*1233 net511
*1234 net512
*1235 net513
*1236 net514
*1237 net515
*1238 net516
*1239 net517
*1240 net518
*1241 net519
*1242 net52
*1243 net520
*1244 net521
*1245 net522
*1246 net523
*1247 net524
*1248 net525
*1249 net526
*1250 net527
*1251 net528
*1252 net529
*1253 net53
*1254 net530
*1255 net531
*1256 net532
*1257 net533
*1258 net534
*1259 net535
*1260 net536
*1261 net537
*1262 net538
*1263 net539
*1264 net54
*1265 net540
*1266 net541
*1267 net542
*1268 net543
*1269 net544
*1270 net545
*1271 net546
*1272 net547
*1273 net548
*1274 net549
*1275 net55
*1276 net550
*1277 net551
*1278 net552
*1279 net553
*1280 net554
*1281 net555
*1282 net556
*1283 net557
*1284 net558
*1285 net559
*1286 net56
*1287 net560
*1288 net561
*1289 net562
*1290 net563
*1291 net564
*1292 net565
*1293 net566
*1294 net567
*1295 net568
*1296 net569
*1297 net57
*1298 net570
*1299 net571
*1300 net572
*1301 net573
*1302 net574
*1303 net575
*1304 net576
*1305 net577
*1306 net578
*1307 net579
*1308 net58
*1309 net580
*1310 net581
*1311 net582
*1312 net583
*1313 net584
*1314 net585
*1315 net586
*1316 net587
*1317 net588
*1318 net589
*1319 net59
*1320 net590
*1321 net591
*1322 net592
*1323 net593
*1324 net594
*1325 net595
*1326 net596
*1327 net597
*1328 net598
*1329 net599
*1330 net6
*1331 net60
*1332 net600
*1333 net601
*1334 net602
*1335 net603
*1336 net604
*1337 net605
*1338 net606
*1339 net607
*1340 net608
*1341 net609
*1342 net61
*1343 net610
*1344 net611
*1345 net612
*1346 net613
*1347 net614
*1348 net615
*1349 net616
*1350 net617
*1351 net618
*1352 net619
*1353 net62
*1354 net620
*1355 net621
*1356 net622
*1357 net623
*1358 net624
*1359 net625
*1360 net626
*1361 net627
*1362 net628
*1363 net629
*1364 net63
*1365 net631
*1366 net632
*1367 net633
*1368 net634
*1369 net635
*1370 net636
*1371 net637
*1372 net638
*1373 net639
*1374 net64
*1375 net640
*1376 net641
*1377 net642
*1378 net643
*1379 net644
*1380 net645
*1381 net646
*1382 net647
*1383 net648
*1384 net649
*1385 net65
*1386 net650
*1387 net651
*1388 net652
*1389 net653
*1390 net654
*1391 net655
*1392 net656
*1393 net657
*1394 net658
*1395 net659
*1396 net66
*1397 net660
*1398 net661
*1399 net67
*1400 net68
*1401 net69
*1402 net7
*1403 net70
*1404 net71
*1405 net72
*1406 net73
*1407 net74
*1408 net75
*1409 net76
*1410 net77
*1411 net78
*1412 net79
*1413 net8
*1414 net80
*1415 net81
*1416 net82
*1417 net83
*1418 net84
*1419 net85
*1420 net86
*1421 net87
*1422 net88
*1423 net89
*1424 net9
*1425 net90
*1426 net91
*1427 net92
*1428 net93
*1429 net94
*1430 net95
*1431 net96
*1432 net97
*1433 net98
*1434 net99
*1435 ANTENNA_1
*1436 ANTENNA_10
*1437 ANTENNA_11
*1438 ANTENNA_12
*1439 ANTENNA_13
*1440 ANTENNA_14
*1441 ANTENNA_15
*1442 ANTENNA_16
*1443 ANTENNA_17
*1444 ANTENNA_18
*1445 ANTENNA_19
*1446 ANTENNA_2
*1447 ANTENNA_20
*1448 ANTENNA_21
*1449 ANTENNA_22
*1450 ANTENNA_23
*1451 ANTENNA_24
*1452 ANTENNA_25
*1453 ANTENNA_26
*1454 ANTENNA_27
*1455 ANTENNA_28
*1456 ANTENNA_29
*1457 ANTENNA_3
*1458 ANTENNA_30
*1459 ANTENNA_31
*1460 ANTENNA_32
*1461 ANTENNA_33
*1462 ANTENNA_34
*1463 ANTENNA_35
*1464 ANTENNA_36
*1465 ANTENNA_37
*1466 ANTENNA_38
*1467 ANTENNA_39
*1468 ANTENNA_4
*1469 ANTENNA_40
*1470 ANTENNA_41
*1471 ANTENNA_42
*1472 ANTENNA_43
*1473 ANTENNA_44
*1474 ANTENNA_45
*1475 ANTENNA_46
*1476 ANTENNA_47
*1477 ANTENNA_48
*1478 ANTENNA_49
*1479 ANTENNA_5
*1480 ANTENNA_50
*1481 ANTENNA_51
*1482 ANTENNA_52
*1483 ANTENNA_53
*1484 ANTENNA_6
*1485 ANTENNA_7
*1486 ANTENNA_8
*1487 ANTENNA_9
*1488 FILLER_0_0_109
*1489 FILLER_0_0_113
*1490 FILLER_0_0_125
*1491 FILLER_0_0_137
*1492 FILLER_0_0_141
*1493 FILLER_0_0_15
*1494 FILLER_0_0_153
*1495 FILLER_0_0_165
*1496 FILLER_0_0_169
*1497 FILLER_0_0_177
*1498 FILLER_0_0_182
*1499 FILLER_0_0_194
*1500 FILLER_0_0_197
*1501 FILLER_0_0_203
*1502 FILLER_0_0_215
*1503 FILLER_0_0_219
*1504 FILLER_0_0_225
*1505 FILLER_0_0_233
*1506 FILLER_0_0_238
*1507 FILLER_0_0_250
*1508 FILLER_0_0_253
*1509 FILLER_0_0_259
*1510 FILLER_0_0_267
*1511 FILLER_0_0_27
*1512 FILLER_0_0_273
*1513 FILLER_0_0_279
*1514 FILLER_0_0_281
*1515 FILLER_0_0_29
*1516 FILLER_0_0_293
*1517 FILLER_0_0_3
*1518 FILLER_0_0_305
*1519 FILLER_0_0_309
*1520 FILLER_0_0_314
*1521 FILLER_0_0_326
*1522 FILLER_0_0_334
*1523 FILLER_0_0_337
*1524 FILLER_0_0_341
*1525 FILLER_0_0_41
*1526 FILLER_0_0_53
*1527 FILLER_0_0_57
*1528 FILLER_0_0_69
*1529 FILLER_0_0_81
*1530 FILLER_0_0_85
*1531 FILLER_0_0_97
*1532 FILLER_0_10_104
*1533 FILLER_0_10_116
*1534 FILLER_0_10_124
*1535 FILLER_0_10_132
*1536 FILLER_0_10_141
*1537 FILLER_0_10_15
*1538 FILLER_0_10_150
*1539 FILLER_0_10_167
*1540 FILLER_0_10_180
*1541 FILLER_0_10_192
*1542 FILLER_0_10_209
*1543 FILLER_0_10_221
*1544 FILLER_0_10_239
*1545 FILLER_0_10_251
*1546 FILLER_0_10_253
*1547 FILLER_0_10_265
*1548 FILLER_0_10_27
*1549 FILLER_0_10_274
*1550 FILLER_0_10_286
*1551 FILLER_0_10_29
*1552 FILLER_0_10_298
*1553 FILLER_0_10_3
*1554 FILLER_0_10_325
*1555 FILLER_0_10_41
*1556 FILLER_0_10_53
*1557 FILLER_0_10_62
*1558 FILLER_0_10_74
*1559 FILLER_0_10_78
*1560 FILLER_0_10_82
*1561 FILLER_0_10_92
*1562 FILLER_0_11_130
*1563 FILLER_0_11_134
*1564 FILLER_0_11_141
*1565 FILLER_0_11_149
*1566 FILLER_0_11_15
*1567 FILLER_0_11_162
*1568 FILLER_0_11_177
*1569 FILLER_0_11_183
*1570 FILLER_0_11_195
*1571 FILLER_0_11_203
*1572 FILLER_0_11_214
*1573 FILLER_0_11_222
*1574 FILLER_0_11_225
*1575 FILLER_0_11_237
*1576 FILLER_0_11_257
*1577 FILLER_0_11_269
*1578 FILLER_0_11_27
*1579 FILLER_0_11_277
*1580 FILLER_0_11_281
*1581 FILLER_0_11_293
*1582 FILLER_0_11_3
*1583 FILLER_0_11_305
*1584 FILLER_0_11_31
*1585 FILLER_0_11_316
*1586 FILLER_0_11_320
*1587 FILLER_0_11_337
*1588 FILLER_0_11_35
*1589 FILLER_0_11_39
*1590 FILLER_0_11_55
*1591 FILLER_0_11_57
*1592 FILLER_0_11_65
*1593 FILLER_0_11_73
*1594 FILLER_0_12_103
*1595 FILLER_0_12_128
*1596 FILLER_0_12_149
*1597 FILLER_0_12_15
*1598 FILLER_0_12_161
*1599 FILLER_0_12_169
*1600 FILLER_0_12_182
*1601 FILLER_0_12_194
*1602 FILLER_0_12_197
*1603 FILLER_0_12_209
*1604 FILLER_0_12_221
*1605 FILLER_0_12_225
*1606 FILLER_0_12_23
*1607 FILLER_0_12_232
*1608 FILLER_0_12_244
*1609 FILLER_0_12_253
*1610 FILLER_0_12_261
*1611 FILLER_0_12_271
*1612 FILLER_0_12_284
*1613 FILLER_0_12_297
*1614 FILLER_0_12_3
*1615 FILLER_0_12_301
*1616 FILLER_0_12_307
*1617 FILLER_0_12_309
*1618 FILLER_0_12_321
*1619 FILLER_0_12_325
*1620 FILLER_0_12_63
*1621 FILLER_0_12_76
*1622 FILLER_0_12_91
*1623 FILLER_0_13_111
*1624 FILLER_0_13_113
*1625 FILLER_0_13_117
*1626 FILLER_0_13_124
*1627 FILLER_0_13_136
*1628 FILLER_0_13_143
*1629 FILLER_0_13_15
*1630 FILLER_0_13_155
*1631 FILLER_0_13_161
*1632 FILLER_0_13_169
*1633 FILLER_0_13_191
*1634 FILLER_0_13_207
*1635 FILLER_0_13_220
*1636 FILLER_0_13_225
*1637 FILLER_0_13_239
*1638 FILLER_0_13_251
*1639 FILLER_0_13_263
*1640 FILLER_0_13_271
*1641 FILLER_0_13_277
*1642 FILLER_0_13_281
*1643 FILLER_0_13_293
*1644 FILLER_0_13_3
*1645 FILLER_0_13_305
*1646 FILLER_0_13_332
*1647 FILLER_0_13_337
*1648 FILLER_0_13_38
*1649 FILLER_0_13_42
*1650 FILLER_0_13_84
*1651 FILLER_0_14_104
*1652 FILLER_0_14_111
*1653 FILLER_0_14_123
*1654 FILLER_0_14_135
*1655 FILLER_0_14_139
*1656 FILLER_0_14_141
*1657 FILLER_0_14_15
*1658 FILLER_0_14_153
*1659 FILLER_0_14_163
*1660 FILLER_0_14_179
*1661 FILLER_0_14_190
*1662 FILLER_0_14_202
*1663 FILLER_0_14_208
*1664 FILLER_0_14_220
*1665 FILLER_0_14_23
*1666 FILLER_0_14_234
*1667 FILLER_0_14_246
*1668 FILLER_0_14_259
*1669 FILLER_0_14_271
*1670 FILLER_0_14_291
*1671 FILLER_0_14_3
*1672 FILLER_0_14_303
*1673 FILLER_0_14_307
*1674 FILLER_0_14_315
*1675 FILLER_0_14_36
*1676 FILLER_0_14_44
*1677 FILLER_0_14_49
*1678 FILLER_0_14_59
*1679 FILLER_0_14_66
*1680 FILLER_0_14_73
*1681 FILLER_0_14_81
*1682 FILLER_0_14_85
*1683 FILLER_0_14_96
*1684 FILLER_0_15_106
*1685 FILLER_0_15_121
*1686 FILLER_0_15_131
*1687 FILLER_0_15_15
*1688 FILLER_0_15_150
*1689 FILLER_0_15_158
*1690 FILLER_0_15_166
*1691 FILLER_0_15_169
*1692 FILLER_0_15_185
*1693 FILLER_0_15_193
*1694 FILLER_0_15_218
*1695 FILLER_0_15_230
*1696 FILLER_0_15_242
*1697 FILLER_0_15_254
*1698 FILLER_0_15_262
*1699 FILLER_0_15_27
*1700 FILLER_0_15_276
*1701 FILLER_0_15_281
*1702 FILLER_0_15_298
*1703 FILLER_0_15_3
*1704 FILLER_0_15_31
*1705 FILLER_0_15_310
*1706 FILLER_0_15_337
*1707 FILLER_0_15_48
*1708 FILLER_0_15_75
*1709 FILLER_0_15_83
*1710 FILLER_0_15_94
*1711 FILLER_0_16_109
*1712 FILLER_0_16_119
*1713 FILLER_0_16_131
*1714 FILLER_0_16_139
*1715 FILLER_0_16_141
*1716 FILLER_0_16_151
*1717 FILLER_0_16_159
*1718 FILLER_0_16_168
*1719 FILLER_0_16_174
*1720 FILLER_0_16_180
*1721 FILLER_0_16_192
*1722 FILLER_0_16_197
*1723 FILLER_0_16_209
*1724 FILLER_0_16_221
*1725 FILLER_0_16_23
*1726 FILLER_0_16_235
*1727 FILLER_0_16_243
*1728 FILLER_0_16_250
*1729 FILLER_0_16_253
*1730 FILLER_0_16_265
*1731 FILLER_0_16_272
*1732 FILLER_0_16_284
*1733 FILLER_0_16_288
*1734 FILLER_0_16_29
*1735 FILLER_0_16_294
*1736 FILLER_0_16_306
*1737 FILLER_0_16_309
*1738 FILLER_0_16_315
*1739 FILLER_0_16_339
*1740 FILLER_0_16_50
*1741 FILLER_0_16_6
*1742 FILLER_0_16_82
*1743 FILLER_0_16_85
*1744 FILLER_0_17_110
*1745 FILLER_0_17_119
*1746 FILLER_0_17_125
*1747 FILLER_0_17_134
*1748 FILLER_0_17_142
*1749 FILLER_0_17_15
*1750 FILLER_0_17_154
*1751 FILLER_0_17_166
*1752 FILLER_0_17_175
*1753 FILLER_0_17_181
*1754 FILLER_0_17_196
*1755 FILLER_0_17_207
*1756 FILLER_0_17_217
*1757 FILLER_0_17_223
*1758 FILLER_0_17_225
*1759 FILLER_0_17_237
*1760 FILLER_0_17_245
*1761 FILLER_0_17_251
*1762 FILLER_0_17_263
*1763 FILLER_0_17_275
*1764 FILLER_0_17_279
*1765 FILLER_0_17_281
*1766 FILLER_0_17_293
*1767 FILLER_0_17_3
*1768 FILLER_0_17_30
*1769 FILLER_0_17_303
*1770 FILLER_0_17_315
*1771 FILLER_0_17_319
*1772 FILLER_0_17_337
*1773 FILLER_0_17_37
*1774 FILLER_0_17_41
*1775 FILLER_0_17_48
*1776 FILLER_0_17_52
*1777 FILLER_0_17_57
*1778 FILLER_0_17_66
*1779 FILLER_0_17_70
*1780 FILLER_0_17_76
*1781 FILLER_0_17_89
*1782 FILLER_0_18_105
*1783 FILLER_0_18_11
*1784 FILLER_0_18_112
*1785 FILLER_0_18_120
*1786 FILLER_0_18_132
*1787 FILLER_0_18_141
*1788 FILLER_0_18_153
*1789 FILLER_0_18_161
*1790 FILLER_0_18_167
*1791 FILLER_0_18_176
*1792 FILLER_0_18_182
*1793 FILLER_0_18_193
*1794 FILLER_0_18_202
*1795 FILLER_0_18_214
*1796 FILLER_0_18_222
*1797 FILLER_0_18_237
*1798 FILLER_0_18_250
*1799 FILLER_0_18_271
*1800 FILLER_0_18_277
*1801 FILLER_0_18_283
*1802 FILLER_0_18_29
*1803 FILLER_0_18_295
*1804 FILLER_0_18_3
*1805 FILLER_0_18_307
*1806 FILLER_0_18_309
*1807 FILLER_0_18_320
*1808 FILLER_0_18_331
*1809 FILLER_0_18_340
*1810 FILLER_0_18_37
*1811 FILLER_0_18_57
*1812 FILLER_0_18_62
*1813 FILLER_0_18_78
*1814 FILLER_0_18_85
*1815 FILLER_0_18_93
*1816 FILLER_0_19_103
*1817 FILLER_0_19_123
*1818 FILLER_0_19_135
*1819 FILLER_0_19_147
*1820 FILLER_0_19_15
*1821 FILLER_0_19_169
*1822 FILLER_0_19_179
*1823 FILLER_0_19_187
*1824 FILLER_0_19_195
*1825 FILLER_0_19_203
*1826 FILLER_0_19_209
*1827 FILLER_0_19_221
*1828 FILLER_0_19_225
*1829 FILLER_0_19_232
*1830 FILLER_0_19_240
*1831 FILLER_0_19_261
*1832 FILLER_0_19_267
*1833 FILLER_0_19_274
*1834 FILLER_0_19_281
*1835 FILLER_0_19_289
*1836 FILLER_0_19_293
*1837 FILLER_0_19_3
*1838 FILLER_0_19_300
*1839 FILLER_0_19_312
*1840 FILLER_0_19_316
*1841 FILLER_0_19_32
*1842 FILLER_0_19_337
*1843 FILLER_0_19_49
*1844 FILLER_0_19_55
*1845 FILLER_0_19_63
*1846 FILLER_0_19_75
*1847 FILLER_0_19_88
*1848 FILLER_0_19_95
*1849 FILLER_0_1_105
*1850 FILLER_0_1_111
*1851 FILLER_0_1_113
*1852 FILLER_0_1_125
*1853 FILLER_0_1_137
*1854 FILLER_0_1_149
*1855 FILLER_0_1_15
*1856 FILLER_0_1_161
*1857 FILLER_0_1_167
*1858 FILLER_0_1_169
*1859 FILLER_0_1_181
*1860 FILLER_0_1_193
*1861 FILLER_0_1_205
*1862 FILLER_0_1_217
*1863 FILLER_0_1_223
*1864 FILLER_0_1_225
*1865 FILLER_0_1_237
*1866 FILLER_0_1_249
*1867 FILLER_0_1_261
*1868 FILLER_0_1_27
*1869 FILLER_0_1_273
*1870 FILLER_0_1_279
*1871 FILLER_0_1_281
*1872 FILLER_0_1_293
*1873 FILLER_0_1_3
*1874 FILLER_0_1_305
*1875 FILLER_0_1_317
*1876 FILLER_0_1_329
*1877 FILLER_0_1_335
*1878 FILLER_0_1_337
*1879 FILLER_0_1_341
*1880 FILLER_0_1_39
*1881 FILLER_0_1_51
*1882 FILLER_0_1_55
*1883 FILLER_0_1_57
*1884 FILLER_0_1_69
*1885 FILLER_0_1_81
*1886 FILLER_0_1_93
*1887 FILLER_0_20_105
*1888 FILLER_0_20_109
*1889 FILLER_0_20_11
*1890 FILLER_0_20_113
*1891 FILLER_0_20_125
*1892 FILLER_0_20_135
*1893 FILLER_0_20_139
*1894 FILLER_0_20_146
*1895 FILLER_0_20_157
*1896 FILLER_0_20_169
*1897 FILLER_0_20_18
*1898 FILLER_0_20_181
*1899 FILLER_0_20_188
*1900 FILLER_0_20_197
*1901 FILLER_0_20_205
*1902 FILLER_0_20_221
*1903 FILLER_0_20_233
*1904 FILLER_0_20_24
*1905 FILLER_0_20_245
*1906 FILLER_0_20_251
*1907 FILLER_0_20_276
*1908 FILLER_0_20_284
*1909 FILLER_0_20_3
*1910 FILLER_0_20_307
*1911 FILLER_0_20_309
*1912 FILLER_0_20_321
*1913 FILLER_0_20_331
*1914 FILLER_0_20_340
*1915 FILLER_0_20_39
*1916 FILLER_0_20_78
*1917 FILLER_0_20_85
*1918 FILLER_0_20_93
*1919 FILLER_0_21_101
*1920 FILLER_0_21_113
*1921 FILLER_0_21_124
*1922 FILLER_0_21_138
*1923 FILLER_0_21_146
*1924 FILLER_0_21_156
*1925 FILLER_0_21_169
*1926 FILLER_0_21_18
*1927 FILLER_0_21_181
*1928 FILLER_0_21_196
*1929 FILLER_0_21_208
*1930 FILLER_0_21_238
*1931 FILLER_0_21_246
*1932 FILLER_0_21_253
*1933 FILLER_0_21_265
*1934 FILLER_0_21_273
*1935 FILLER_0_21_292
*1936 FILLER_0_21_3
*1937 FILLER_0_21_304
*1938 FILLER_0_21_319
*1939 FILLER_0_21_337
*1940 FILLER_0_21_38
*1941 FILLER_0_21_46
*1942 FILLER_0_21_54
*1943 FILLER_0_21_73
*1944 FILLER_0_21_79
*1945 FILLER_0_22_102
*1946 FILLER_0_22_123
*1947 FILLER_0_22_131
*1948 FILLER_0_22_138
*1949 FILLER_0_22_141
*1950 FILLER_0_22_153
*1951 FILLER_0_22_171
*1952 FILLER_0_22_18
*1953 FILLER_0_22_181
*1954 FILLER_0_22_193
*1955 FILLER_0_22_197
*1956 FILLER_0_22_211
*1957 FILLER_0_22_219
*1958 FILLER_0_22_231
*1959 FILLER_0_22_243
*1960 FILLER_0_22_249
*1961 FILLER_0_22_26
*1962 FILLER_0_22_268
*1963 FILLER_0_22_280
*1964 FILLER_0_22_292
*1965 FILLER_0_22_307
*1966 FILLER_0_22_309
*1967 FILLER_0_22_330
*1968 FILLER_0_22_35
*1969 FILLER_0_22_6
*1970 FILLER_0_22_67
*1971 FILLER_0_22_85
*1972 FILLER_0_23_109
*1973 FILLER_0_23_11
*1974 FILLER_0_23_113
*1975 FILLER_0_23_120
*1976 FILLER_0_23_132
*1977 FILLER_0_23_149
*1978 FILLER_0_23_161
*1979 FILLER_0_23_167
*1980 FILLER_0_23_169
*1981 FILLER_0_23_184
*1982 FILLER_0_23_199
*1983 FILLER_0_23_205
*1984 FILLER_0_23_213
*1985 FILLER_0_23_221
*1986 FILLER_0_23_225
*1987 FILLER_0_23_237
*1988 FILLER_0_23_241
*1989 FILLER_0_23_248
*1990 FILLER_0_23_260
*1991 FILLER_0_23_266
*1992 FILLER_0_23_272
*1993 FILLER_0_23_281
*1994 FILLER_0_23_289
*1995 FILLER_0_23_296
*1996 FILLER_0_23_3
*1997 FILLER_0_23_308
*1998 FILLER_0_23_31
*1999 FILLER_0_23_337
*2000 FILLER_0_23_39
*2001 FILLER_0_23_54
*2002 FILLER_0_23_67
*2003 FILLER_0_23_71