* NGSPICE file created from cust_rom.ext - technology: sky130A

* Black-box entry subcircuit for sky130_ef_sc_hd__decap_12 abstract view
.subckt sky130_ef_sc_hd__decap_12 VPWR VGND VPB VNB
.ends

* Black-box entry subcircuit for sky130_fd_sc_hd__decap_8 abstract view
.subckt sky130_fd_sc_hd__decap_8 VGND VNB VPB VPWR
.ends

* Black-box entry subcircuit for sky130_fd_sc_hd__tapvpwrvgnd_1 abstract view
.subckt sky130_fd_sc_hd__tapvpwrvgnd_1 VGND VPWR
.ends

* Black-box entry subcircuit for sky130_fd_sc_hd__or3_1 abstract view
.subckt sky130_fd_sc_hd__or3_1 A B C VGND VNB VPB VPWR X
.ends

* Black-box entry subcircuit for sky130_fd_sc_hd__a22o_1 abstract view
.subckt sky130_fd_sc_hd__a22o_1 A1 A2 B1 B2 VGND VNB VPB VPWR X
.ends

* Black-box entry subcircuit for sky130_fd_sc_hd__fill_1 abstract view
.subckt sky130_fd_sc_hd__fill_1 VGND VNB VPB VPWR
.ends

* Black-box entry subcircuit for sky130_fd_sc_hd__decap_4 abstract view
.subckt sky130_fd_sc_hd__decap_4 VGND VNB VPB VPWR
.ends

* Black-box entry subcircuit for sky130_fd_sc_hd__clkbuf_2 abstract view
.subckt sky130_fd_sc_hd__clkbuf_2 A VGND VNB VPB VPWR X
.ends

* Black-box entry subcircuit for sky130_fd_sc_hd__clkbuf_4 abstract view
.subckt sky130_fd_sc_hd__clkbuf_4 A VGND VNB VPB VPWR X
.ends

* Black-box entry subcircuit for sky130_fd_sc_hd__dlymetal6s2s_1 abstract view
.subckt sky130_fd_sc_hd__dlymetal6s2s_1 A VGND VNB VPB VPWR X
.ends

* Black-box entry subcircuit for sky130_fd_sc_hd__o32a_1 abstract view
.subckt sky130_fd_sc_hd__o32a_1 A1 A2 A3 B1 B2 VGND VNB VPB VPWR X
.ends

* Black-box entry subcircuit for sky130_fd_sc_hd__buf_2 abstract view
.subckt sky130_fd_sc_hd__buf_2 A VGND VNB VPB VPWR X
.ends

* Black-box entry subcircuit for sky130_fd_sc_hd__nor4b_1 abstract view
.subckt sky130_fd_sc_hd__nor4b_1 A B C D_N VGND VNB VPB VPWR Y
.ends

* Black-box entry subcircuit for sky130_fd_sc_hd__or2_1 abstract view
.subckt sky130_fd_sc_hd__or2_1 A B VGND VNB VPB VPWR X
.ends

* Black-box entry subcircuit for sky130_fd_sc_hd__or4_1 abstract view
.subckt sky130_fd_sc_hd__or4_1 A B C D VGND VNB VPB VPWR X
.ends

* Black-box entry subcircuit for sky130_fd_sc_hd__fill_2 abstract view
.subckt sky130_fd_sc_hd__fill_2 VGND VNB VPB VPWR
.ends

* Black-box entry subcircuit for sky130_fd_sc_hd__or4_2 abstract view
.subckt sky130_fd_sc_hd__or4_2 A B C D VGND VNB VPB VPWR X
.ends

* Black-box entry subcircuit for sky130_fd_sc_hd__a22o_2 abstract view
.subckt sky130_fd_sc_hd__a22o_2 A1 A2 B1 B2 VGND VNB VPB VPWR X
.ends

* Black-box entry subcircuit for sky130_fd_sc_hd__clkbuf_1 abstract view
.subckt sky130_fd_sc_hd__clkbuf_1 A VGND VNB VPB VPWR X
.ends

* Black-box entry subcircuit for sky130_fd_sc_hd__decap_3 abstract view
.subckt sky130_fd_sc_hd__decap_3 VGND VNB VPB VPWR
.ends

* Black-box entry subcircuit for sky130_fd_sc_hd__dlygate4sd3_1 abstract view
.subckt sky130_fd_sc_hd__dlygate4sd3_1 A VGND VNB VPB VPWR X
.ends

* Black-box entry subcircuit for sky130_fd_sc_hd__diode_2 abstract view
.subckt sky130_fd_sc_hd__diode_2 DIODE VGND VNB VPB VPWR
.ends

* Black-box entry subcircuit for sky130_fd_sc_hd__decap_6 abstract view
.subckt sky130_fd_sc_hd__decap_6 VGND VNB VPB VPWR
.ends

* Black-box entry subcircuit for sky130_fd_sc_hd__buf_1 abstract view
.subckt sky130_fd_sc_hd__buf_1 A VGND VNB VPB VPWR X
.ends

* Black-box entry subcircuit for sky130_fd_sc_hd__dfxtp_1 abstract view
.subckt sky130_fd_sc_hd__dfxtp_1 CLK D VGND VNB VPB VPWR Q
.ends

* Black-box entry subcircuit for sky130_fd_sc_hd__o21ba_1 abstract view
.subckt sky130_fd_sc_hd__o21ba_1 A1 A2 B1_N VGND VNB VPB VPWR X
.ends

* Black-box entry subcircuit for sky130_fd_sc_hd__or2_2 abstract view
.subckt sky130_fd_sc_hd__or2_2 A B VGND VNB VPB VPWR X
.ends

* Black-box entry subcircuit for sky130_fd_sc_hd__nor4_1 abstract view
.subckt sky130_fd_sc_hd__nor4_1 A B C D VGND VNB VPB VPWR Y
.ends

* Black-box entry subcircuit for sky130_fd_sc_hd__nor2_1 abstract view
.subckt sky130_fd_sc_hd__nor2_1 A B VGND VNB VPB VPWR Y
.ends

* Black-box entry subcircuit for sky130_fd_sc_hd__and4_1 abstract view
.subckt sky130_fd_sc_hd__and4_1 A B C D VGND VNB VPB VPWR X
.ends

* Black-box entry subcircuit for sky130_fd_sc_hd__and4bb_1 abstract view
.subckt sky130_fd_sc_hd__and4bb_1 A_N B_N C D VGND VNB VPB VPWR X
.ends

* Black-box entry subcircuit for sky130_fd_sc_hd__or3_2 abstract view
.subckt sky130_fd_sc_hd__or3_2 A B C VGND VNB VPB VPWR X
.ends

* Black-box entry subcircuit for sky130_fd_sc_hd__and4b_1 abstract view
.subckt sky130_fd_sc_hd__and4b_1 A_N B C D VGND VNB VPB VPWR X
.ends

* Black-box entry subcircuit for sky130_fd_sc_hd__clkinv_4 abstract view
.subckt sky130_fd_sc_hd__clkinv_4 A VGND VNB VPB VPWR Y
.ends

* Black-box entry subcircuit for sky130_fd_sc_hd__o21ba_2 abstract view
.subckt sky130_fd_sc_hd__o21ba_2 A1 A2 B1_N VGND VNB VPB VPWR X
.ends

* Black-box entry subcircuit for sky130_fd_sc_hd__bufinv_16 abstract view
.subckt sky130_fd_sc_hd__bufinv_16 A VGND VNB VPB VPWR Y
.ends

* Black-box entry subcircuit for sky130_fd_sc_hd__conb_1 abstract view
.subckt sky130_fd_sc_hd__conb_1 VGND VNB VPB VPWR HI LO
.ends

* Black-box entry subcircuit for sky130_fd_sc_hd__inv_2 abstract view
.subckt sky130_fd_sc_hd__inv_2 A VGND VNB VPB VPWR Y
.ends

* Black-box entry subcircuit for sky130_fd_sc_hd__clkbuf_8 abstract view
.subckt sky130_fd_sc_hd__clkbuf_8 A VGND VNB VPB VPWR X
.ends

* Black-box entry subcircuit for sky130_fd_sc_hd__o31a_1 abstract view
.subckt sky130_fd_sc_hd__o31a_1 A1 A2 A3 B1 VGND VNB VPB VPWR X
.ends

* Black-box entry subcircuit for sky130_fd_sc_hd__o22a_1 abstract view
.subckt sky130_fd_sc_hd__o22a_1 A1 A2 B1 B2 VGND VNB VPB VPWR X
.ends

* Black-box entry subcircuit for sky130_fd_sc_hd__clkbuf_16 abstract view
.subckt sky130_fd_sc_hd__clkbuf_16 A VGND VNB VPB VPWR X
.ends

* Black-box entry subcircuit for sky130_fd_sc_hd__o21ba_4 abstract view
.subckt sky130_fd_sc_hd__o21ba_4 A1 A2 B1_N VGND VNB VPB VPWR X
.ends

* Black-box entry subcircuit for sky130_fd_sc_hd__or4_4 abstract view
.subckt sky130_fd_sc_hd__or4_4 A B C D VGND VNB VPB VPWR X
.ends

* Black-box entry subcircuit for sky130_fd_sc_hd__nand3b_1 abstract view
.subckt sky130_fd_sc_hd__nand3b_1 A_N B C VGND VNB VPB VPWR Y
.ends

* Black-box entry subcircuit for sky130_fd_sc_hd__or4b_1 abstract view
.subckt sky130_fd_sc_hd__or4b_1 A B C D_N VGND VNB VPB VPWR X
.ends

* Black-box entry subcircuit for sky130_fd_sc_hd__and2b_1 abstract view
.subckt sky130_fd_sc_hd__and2b_1 A_N B VGND VNB VPB VPWR X
.ends

* Black-box entry subcircuit for sky130_fd_sc_hd__a22o_4 abstract view
.subckt sky130_fd_sc_hd__a22o_4 A1 A2 B1 B2 VGND VNB VPB VPWR X
.ends

* Black-box entry subcircuit for sky130_fd_sc_hd__or4b_4 abstract view
.subckt sky130_fd_sc_hd__or4b_4 A B C D_N VGND VNB VPB VPWR X
.ends

.subckt cust_rom VGND VPWR addr0[0] addr0[1] addr0[2] addr0[3] addr0[4] addr0[5] addr0[6]
+ addr0[7] clk0 cs0 dout0[0] dout0[10] dout0[11] dout0[12] dout0[13] dout0[14] dout0[15]
+ dout0[16] dout0[17] dout0[18] dout0[19] dout0[1] dout0[20] dout0[21] dout0[22] dout0[23]
+ dout0[24] dout0[25] dout0[26] dout0[27] dout0[28] dout0[29] dout0[2] dout0[30] dout0[31]
+ dout0[3] dout0[4] dout0[5] dout0[6] dout0[7] dout0[8] dout0[9] dout0[32]
XFILLER_0_43_81 VPWR VGND VPWR VGND sky130_ef_sc_hd__decap_12
XFILLER_0_17_211 VPWR VGND VPWR VGND sky130_ef_sc_hd__decap_12
XFILLER_0_32_236 VGND VGND VPWR VPWR sky130_fd_sc_hd__decap_8
XTAP_TAPCELL_ROW_9_148 VGND VPWR sky130_fd_sc_hd__tapvpwrvgnd_1
XFILLER_0_3_39 VPWR VGND VPWR VGND sky130_ef_sc_hd__decap_12
X_1270_ _0539_ _0541_ _0546_ VGND VGND VPWR VPWR _0547_ sky130_fd_sc_hd__or3_1
XTAP_TAPCELL_ROW_14_172 VGND VPWR sky130_fd_sc_hd__tapvpwrvgnd_1
X_0985_ net112 net78 net76 net116 VGND VGND VPWR VPWR _0277_ sky130_fd_sc_hd__a22o_1
XFILLER_0_14_203 VPWR VGND VPWR VGND sky130_ef_sc_hd__decap_12
XFILLER_0_14_247 VGND VGND VPWR VPWR sky130_fd_sc_hd__fill_1
XFILLER_0_38_92 VGND VGND VPWR VPWR sky130_fd_sc_hd__decap_4
Xfanout127 addr0_reg\[3\] VGND VGND VPWR VPWR net127 sky130_fd_sc_hd__clkbuf_2
Xfanout105 _0697_ VGND VGND VPWR VPWR net105 sky130_fd_sc_hd__clkbuf_4
Xfanout116 _0667_ VGND VGND VPWR VPWR net116 sky130_fd_sc_hd__dlymetal6s2s_1
X_1399_ net42 _0658_ _0666_ net151 net137 VGND VGND VPWR VPWR _0026_ sky130_fd_sc_hd__o32a_1
Xfanout138 net139 VGND VGND VPWR VPWR net138 sky130_fd_sc_hd__buf_2
XTAP_TAPCELL_ROW_37_286 VGND VPWR sky130_fd_sc_hd__tapvpwrvgnd_1
XTAP_TAPCELL_ROW_28_242 VGND VPWR sky130_fd_sc_hd__tapvpwrvgnd_1
X_0770_ net124 net119 net122 net126 VGND VGND VPWR VPWR _0062_ sky130_fd_sc_hd__nor4b_1
X_1322_ _0096_ _0193_ VGND VGND VPWR VPWR _0594_ sky130_fd_sc_hd__or2_1
X_1253_ _0191_ _0193_ _0234_ _0405_ VGND VGND VPWR VPWR _0531_ sky130_fd_sc_hd__or4_1
X_1184_ _0060_ _0228_ _0446_ _0466_ VGND VGND VPWR VPWR _0467_ sky130_fd_sc_hd__or4_1
X_0968_ _0065_ _0259_ VGND VGND VPWR VPWR _0260_ sky130_fd_sc_hd__or2_1
XFILLER_0_24_83 VGND VGND VPWR VPWR sky130_fd_sc_hd__fill_1
XFILLER_0_10_250 VGND VGND VPWR VPWR sky130_fd_sc_hd__fill_2
X_0899_ _0115_ _0185_ _0186_ _0187_ VGND VGND VPWR VPWR _0191_ sky130_fd_sc_hd__or4_2
XFILLER_0_37_169 VGND VGND VPWR VPWR sky130_fd_sc_hd__decap_8
XFILLER_0_45_27 VPWR VGND VPWR VGND sky130_ef_sc_hd__decap_12
XFILLER_0_0_29 VPWR VGND VPWR VGND sky130_ef_sc_hd__decap_12
X_0822_ net106 net90 net85 net98 VGND VGND VPWR VPWR _0114_ sky130_fd_sc_hd__a22o_2
XTAP_TAPCELL_ROW_31_259 VGND VPWR sky130_fd_sc_hd__tapvpwrvgnd_1
XFILLER_0_28_136 VGND VGND VPWR VPWR sky130_fd_sc_hd__decap_4
XFILLER_0_3_225 VPWR VGND VPWR VGND sky130_ef_sc_hd__decap_12
X_0753_ _0040_ _0043_ _0044_ VGND VGND VPWR VPWR _0045_ sky130_fd_sc_hd__or3_1
X_1236_ _0119_ _0199_ _0209_ _0514_ VGND VGND VPWR VPWR _0515_ sky130_fd_sc_hd__or4_1
X_1305_ _0158_ _0576_ _0577_ _0578_ VGND VGND VPWR VPWR _0579_ sky130_fd_sc_hd__or4_1
X_1167_ _0141_ _0205_ _0230_ _0248_ VGND VGND VPWR VPWR _0451_ sky130_fd_sc_hd__or4_1
X_1098_ _0099_ _0102_ VGND VGND VPWR VPWR _0385_ sky130_fd_sc_hd__or2_1
XTAP_TAPCELL_ROW_22_215 VGND VPWR sky130_fd_sc_hd__tapvpwrvgnd_1
XFILLER_0_42_161 VPWR VGND VPWR VGND sky130_ef_sc_hd__decap_12
XFILLER_0_19_169 VGND VGND VPWR VPWR sky130_fd_sc_hd__decap_8
XTAP_TAPCELL_ROW_45_329 VGND VPWR sky130_fd_sc_hd__tapvpwrvgnd_1
Xwire100 _0699_ VGND VGND VPWR VPWR net100 sky130_fd_sc_hd__clkbuf_1
X_1021_ _0136_ _0142_ VGND VGND VPWR VPWR _0312_ sky130_fd_sc_hd__or2_1
XFILLER_0_31_109 VGND VGND VPWR VPWR sky130_fd_sc_hd__decap_3
X_0805_ net78 net49 net47 net76 VGND VGND VPWR VPWR _0097_ sky130_fd_sc_hd__a22o_2
XFILLER_0_16_139 VGND VGND VPWR VPWR sky130_fd_sc_hd__fill_1
XFILLER_0_21_95 VGND VGND VPWR VPWR sky130_fd_sc_hd__decap_4
XFILLER_0_24_161 VGND VGND VPWR VPWR sky130_fd_sc_hd__decap_4
X_0736_ net91 net89 net84 net94 VGND VGND VPWR VPWR _0710_ sky130_fd_sc_hd__a22o_2
XFILLER_0_24_183 VPWR VGND VPWR VGND sky130_ef_sc_hd__decap_12
XFILLER_0_34_3 VPWR VGND VPWR VGND sky130_ef_sc_hd__decap_12
X_1219_ _0166_ _0489_ _0497_ _0499_ VGND VGND VPWR VPWR _0500_ sky130_fd_sc_hd__or4_1
XFILLER_0_47_253 VPWR VGND VPWR VGND sky130_ef_sc_hd__decap_12
Xhold30 net23 VGND VGND VPWR VPWR net170 sky130_fd_sc_hd__dlygate4sd3_1
XFILLER_0_30_197 VPWR VGND VPWR VGND sky130_ef_sc_hd__decap_12
XFILLER_0_26_29 VGND VGND VPWR VPWR sky130_fd_sc_hd__fill_1
XFILLER_0_38_231 VPWR VGND VPWR VGND sky130_ef_sc_hd__decap_12
XTAP_TAPCELL_ROW_41_310 VGND VPWR sky130_fd_sc_hd__tapvpwrvgnd_1
XFILLER_0_38_253 VGND VGND VPWR VPWR sky130_fd_sc_hd__decap_4
XANTENNA_5 _0060_ VGND VGND VPWR VPWR sky130_fd_sc_hd__diode_2
XFILLER_0_21_131 VPWR VGND VPWR VGND sky130_ef_sc_hd__decap_12
XFILLER_0_21_164 VGND VGND VPWR VPWR sky130_fd_sc_hd__decap_4
XFILLER_0_20_9 VGND VGND VPWR VPWR sky130_fd_sc_hd__fill_1
XFILLER_0_29_264 VGND VGND VPWR VPWR sky130_fd_sc_hd__decap_6
X_1004_ _0069_ _0295_ VGND VGND VPWR VPWR _0296_ sky130_fd_sc_hd__or2_1
XFILLER_0_12_153 VPWR VGND VPWR VGND sky130_ef_sc_hd__decap_12
X_0719_ net117 net115 net113 net111 VGND VGND VPWR VPWR _0693_ sky130_fd_sc_hd__a22o_2
Xoutput20 net20 VGND VGND VPWR VPWR dout0[19] sky130_fd_sc_hd__clkbuf_4
Xoutput31 net31 VGND VGND VPWR VPWR dout0[29] sky130_fd_sc_hd__buf_2
XFILLER_0_27_61 VGND VGND VPWR VPWR sky130_fd_sc_hd__decap_8
XFILLER_0_43_93 VGND VGND VPWR VPWR sky130_fd_sc_hd__decap_3
XFILLER_0_17_223 VGND VGND VPWR VPWR sky130_fd_sc_hd__fill_1
XFILLER_0_17_256 VGND VGND VPWR VPWR sky130_fd_sc_hd__decap_4
XFILLER_0_40_281 VGND VGND VPWR VPWR sky130_fd_sc_hd__fill_2
XFILLER_0_4_183 VPWR VGND VPWR VGND sky130_ef_sc_hd__decap_12
XFILLER_0_4_161 VPWR VGND VPWR VGND sky130_ef_sc_hd__decap_12
XTAP_TAPCELL_ROW_9_149 VGND VPWR sky130_fd_sc_hd__tapvpwrvgnd_1
XFILLER_0_2_109 VPWR VGND VPWR VGND sky130_ef_sc_hd__decap_12
XFILLER_0_23_259 VGND VGND VPWR VPWR sky130_fd_sc_hd__fill_1
XFILLER_0_31_281 VGND VGND VPWR VPWR sky130_fd_sc_hd__fill_2
X_0984_ net116 net113 net112 net117 VGND VGND VPWR VPWR _0276_ sky130_fd_sc_hd__a22o_1
XTAP_TAPCELL_ROW_14_173 VGND VPWR sky130_fd_sc_hd__tapvpwrvgnd_1
XFILLER_0_14_215 VPWR VGND VPWR VGND sky130_ef_sc_hd__decap_12
XFILLER_0_38_60 VPWR VGND VPWR VGND sky130_ef_sc_hd__decap_12
Xfanout128 addr0_reg\[3\] VGND VGND VPWR VPWR net128 sky130_fd_sc_hd__buf_1
Xfanout106 _0697_ VGND VGND VPWR VPWR net106 sky130_fd_sc_hd__clkbuf_2
Xfanout139 net9 VGND VGND VPWR VPWR net139 sky130_fd_sc_hd__buf_2
X_1467_ clknet_2_0__leaf_clk0 net8 VGND VGND VPWR VPWR addr0_reg\[7\] sky130_fd_sc_hd__dfxtp_1
X_1398_ _0163_ _0659_ _0662_ _0665_ VGND VGND VPWR VPWR _0666_ sky130_fd_sc_hd__or4_1
Xfanout117 _0657_ VGND VGND VPWR VPWR net117 sky130_fd_sc_hd__buf_2
XTAP_TAPCELL_ROW_37_287 VGND VPWR sky130_fd_sc_hd__tapvpwrvgnd_1
XFILLER_0_9_220 VGND VGND VPWR VPWR sky130_fd_sc_hd__decap_4
XFILLER_0_9_231 VGND VGND VPWR VPWR sky130_fd_sc_hd__decap_4
XTAP_TAPCELL_ROW_5_130 VGND VPWR sky130_fd_sc_hd__tapvpwrvgnd_1
XFILLER_0_13_281 VGND VGND VPWR VPWR sky130_fd_sc_hd__fill_2
XFILLER_0_34_29 VGND VGND VPWR VPWR sky130_fd_sc_hd__fill_1
XTAP_TAPCELL_ROW_28_243 VGND VPWR sky130_fd_sc_hd__tapvpwrvgnd_1
XFILLER_0_11_229 VGND VGND VPWR VPWR sky130_fd_sc_hd__fill_1
X_1321_ _0201_ _0231_ _0366_ _0548_ VGND VGND VPWR VPWR _0593_ sky130_fd_sc_hd__or4_1
X_1252_ _0487_ _0489_ _0527_ _0529_ VGND VGND VPWR VPWR _0530_ sky130_fd_sc_hd__or4_1
X_1183_ _0049_ _0389_ _0414_ _0459_ VGND VGND VPWR VPWR _0466_ sky130_fd_sc_hd__or4_1
XFILLER_0_40_72 VGND VGND VPWR VPWR sky130_fd_sc_hd__decap_6
X_0967_ net58 net55 _0046_ VGND VGND VPWR VPWR _0259_ sky130_fd_sc_hd__o21ba_1
X_0898_ _0185_ _0186_ VGND VGND VPWR VPWR _0190_ sky130_fd_sc_hd__or2_1
XPHY_EDGE_ROW_12_Right_12 VGND VGND VPWR VPWR sky130_fd_sc_hd__decap_3
XFILLER_0_4_83 VGND VGND VPWR VPWR sky130_fd_sc_hd__fill_1
XTAP_TAPCELL_ROW_2_111 VGND VPWR sky130_fd_sc_hd__tapvpwrvgnd_1
XPHY_EDGE_ROW_21_Right_21 VGND VGND VPWR VPWR sky130_fd_sc_hd__decap_3
XFILLER_0_37_159 VGND VGND VPWR VPWR sky130_fd_sc_hd__decap_8
XFILLER_0_37_148 VGND VGND VPWR VPWR sky130_fd_sc_hd__fill_1
XPHY_EDGE_ROW_30_Right_30 VGND VGND VPWR VPWR sky130_fd_sc_hd__decap_3
XFILLER_0_29_18 VGND VGND VPWR VPWR sky130_fd_sc_hd__decap_4
XFILLER_0_45_39 VPWR VGND VPWR VGND sky130_ef_sc_hd__decap_12
XFILLER_0_43_118 VGND VGND VPWR VPWR sky130_fd_sc_hd__fill_2
X_0821_ _0110_ _0112_ VGND VGND VPWR VPWR _0113_ sky130_fd_sc_hd__or2_1
X_0752_ net79 net74 net72 net77 VGND VGND VPWR VPWR _0044_ sky130_fd_sc_hd__a22o_2
XFILLER_0_3_237 VPWR VGND VPWR VGND sky130_ef_sc_hd__decap_12
X_1235_ _0090_ _0161_ VGND VGND VPWR VPWR _0514_ sky130_fd_sc_hd__or2_2
X_1166_ _0069_ _0272_ _0297_ _0411_ VGND VGND VPWR VPWR _0450_ sky130_fd_sc_hd__or4_1
XFILLER_0_19_84 VGND VGND VPWR VPWR sky130_fd_sc_hd__fill_2
X_1304_ _0165_ _0171_ _0219_ _0250_ VGND VGND VPWR VPWR _0578_ sky130_fd_sc_hd__or4_1
X_1097_ net44 _0381_ _0384_ net163 net139 VGND VGND VPWR VPWR _0004_ sky130_fd_sc_hd__o32a_1
XFILLER_0_35_83 VGND VGND VPWR VPWR sky130_fd_sc_hd__fill_1
XFILLER_0_42_195 VGND VGND VPWR VPWR sky130_fd_sc_hd__fill_1
XFILLER_0_42_173 VGND VGND VPWR VPWR sky130_fd_sc_hd__decap_3
XFILLER_0_34_129 VGND VGND VPWR VPWR sky130_fd_sc_hd__fill_1
XFILLER_0_27_181 VGND VGND VPWR VPWR sky130_fd_sc_hd__decap_4
XFILLER_0_18_192 VGND VGND VPWR VPWR sky130_fd_sc_hd__decap_4
XFILLER_0_25_129 VGND VGND VPWR VPWR sky130_fd_sc_hd__fill_1
X_1020_ _0086_ _0310_ VGND VGND VPWR VPWR _0311_ sky130_fd_sc_hd__or2_1
X_0735_ net132 net130 net128 net134 VGND VGND VPWR VPWR _0709_ sky130_fd_sc_hd__nor4b_1
X_0804_ _0093_ _0094_ _0095_ VGND VGND VPWR VPWR _0096_ sky130_fd_sc_hd__or3_1
XFILLER_0_21_63 VPWR VGND VPWR VGND sky130_ef_sc_hd__decap_12
XFILLER_0_24_195 VGND VGND VPWR VPWR sky130_fd_sc_hd__fill_1
X_1149_ net135 _0082_ _0431_ _0432_ VGND VGND VPWR VPWR _0434_ sky130_fd_sc_hd__or4_1
XFILLER_0_1_51 VGND VGND VPWR VPWR sky130_fd_sc_hd__decap_4
XFILLER_0_27_3 VPWR VGND VPWR VGND sky130_ef_sc_hd__decap_12
X_1218_ _0068_ _0268_ _0307_ _0498_ VGND VGND VPWR VPWR _0499_ sky130_fd_sc_hd__or4_1
XFILLER_0_47_265 VGND VGND VPWR VPWR sky130_fd_sc_hd__decap_4
XFILLER_0_15_173 VGND VGND VPWR VPWR sky130_fd_sc_hd__fill_1
Xhold31 net27 VGND VGND VPWR VPWR net171 sky130_fd_sc_hd__dlygate4sd3_1
Xhold20 net32 VGND VGND VPWR VPWR net160 sky130_fd_sc_hd__dlygate4sd3_1
XFILLER_0_42_29 VPWR VGND VPWR VGND sky130_ef_sc_hd__decap_12
XFILLER_0_38_243 VGND VGND VPWR VPWR sky130_fd_sc_hd__decap_8
XANTENNA_6 _0060_ VGND VGND VPWR VPWR sky130_fd_sc_hd__diode_2
XFILLER_0_21_110 VGND VGND VPWR VPWR sky130_fd_sc_hd__fill_2
XFILLER_0_6_29 VGND VGND VPWR VPWR sky130_fd_sc_hd__fill_1
XFILLER_0_21_143 VGND VGND VPWR VPWR sky130_fd_sc_hd__decap_8
X_1003_ net66 net59 net56 net68 VGND VGND VPWR VPWR _0295_ sky130_fd_sc_hd__a22o_2
XFILLER_0_32_73 VGND VGND VPWR VPWR sky130_fd_sc_hd__fill_2
XFILLER_0_29_210 VGND VGND VPWR VPWR sky130_fd_sc_hd__decap_8
X_0718_ net126 net124 net119 net122 VGND VGND VPWR VPWR _0687_ sky130_fd_sc_hd__nor4_1
XPHY_EDGE_ROW_6_Right_6 VGND VGND VPWR VPWR sky130_fd_sc_hd__decap_3
XFILLER_0_12_132 VGND VGND VPWR VPWR sky130_fd_sc_hd__decap_8
XFILLER_0_12_165 VGND VGND VPWR VPWR sky130_fd_sc_hd__decap_8
XFILLER_0_7_192 VPWR VGND VPWR VGND sky130_ef_sc_hd__decap_12
Xoutput32 net32 VGND VGND VPWR VPWR dout0[2] sky130_fd_sc_hd__clkbuf_4
Xoutput10 net10 VGND VGND VPWR VPWR dout0[0] sky130_fd_sc_hd__buf_2
Xoutput21 net21 VGND VGND VPWR VPWR dout0[1] sky130_fd_sc_hd__buf_2
XFILLER_0_26_202 VGND VGND VPWR VPWR sky130_fd_sc_hd__fill_2
XFILLER_0_4_195 VGND VGND VPWR VPWR sky130_fd_sc_hd__fill_1
XFILLER_0_4_173 VGND VGND VPWR VPWR sky130_fd_sc_hd__decap_4
X_0983_ _0109_ _0274_ VGND VGND VPWR VPWR _0275_ sky130_fd_sc_hd__or2_2
XTAP_TAPCELL_ROW_14_174 VGND VPWR sky130_fd_sc_hd__tapvpwrvgnd_1
XFILLER_0_14_227 VGND VGND VPWR VPWR sky130_fd_sc_hd__decap_4
Xfanout129 addr0_reg\[2\] VGND VGND VPWR VPWR net129 sky130_fd_sc_hd__clkbuf_2
Xfanout118 _0657_ VGND VGND VPWR VPWR net118 sky130_fd_sc_hd__clkbuf_2
Xfanout107 _0695_ VGND VGND VPWR VPWR net107 sky130_fd_sc_hd__buf_2
XFILLER_0_38_83 VGND VGND VPWR VPWR sky130_fd_sc_hd__fill_1
X_1466_ clknet_2_0__leaf_clk0 net7 VGND VGND VPWR VPWR addr0_reg\[6\] sky130_fd_sc_hd__dfxtp_1
X_1397_ _0430_ _0573_ _0663_ _0664_ VGND VGND VPWR VPWR _0665_ sky130_fd_sc_hd__or4_1
XTAP_TAPCELL_ROW_37_288 VGND VPWR sky130_fd_sc_hd__tapvpwrvgnd_1
XTAP_TAPCELL_ROW_28_244 VGND VPWR sky130_fd_sc_hd__tapvpwrvgnd_1
X_1320_ _0074_ _0076_ _0221_ _0244_ VGND VGND VPWR VPWR _0592_ sky130_fd_sc_hd__or4_1
X_1182_ _0252_ _0300_ _0406_ _0460_ VGND VGND VPWR VPWR _0465_ sky130_fd_sc_hd__or4_1
XTAP_TAPCELL_ROW_19_200 VGND VPWR sky130_fd_sc_hd__tapvpwrvgnd_1
X_1251_ _0069_ _0149_ _0297_ _0491_ VGND VGND VPWR VPWR _0529_ sky130_fd_sc_hd__or4_1
XFILLER_0_24_85 VGND VGND VPWR VPWR sky130_fd_sc_hd__fill_2
XFILLER_0_6_202 VPWR VGND VPWR VGND sky130_ef_sc_hd__decap_12
X_0966_ net109 net58 net55 net107 VGND VGND VPWR VPWR _0258_ sky130_fd_sc_hd__a22o_1
X_0897_ _0115_ _0186_ _0187_ VGND VGND VPWR VPWR _0189_ sky130_fd_sc_hd__or3_1
X_1449_ clknet_2_3__leaf_clk0 _0021_ VGND VGND VPWR VPWR net23 sky130_fd_sc_hd__dfxtp_1
XTAP_TAPCELL_ROW_2_112 VGND VPWR sky130_fd_sc_hd__tapvpwrvgnd_1
XFILLER_0_36_193 VGND VGND VPWR VPWR sky130_fd_sc_hd__decap_3
X_0751_ net75 net69 net67 net73 VGND VGND VPWR VPWR _0043_ sky130_fd_sc_hd__a22o_2
XFILLER_0_3_249 VPWR VGND VPWR VGND sky130_ef_sc_hd__decap_12
X_0820_ _0702_ _0111_ VGND VGND VPWR VPWR _0112_ sky130_fd_sc_hd__nor2_1
X_1303_ _0180_ _0288_ _0305_ _0308_ VGND VGND VPWR VPWR _0577_ sky130_fd_sc_hd__or4_1
X_1165_ _0149_ _0446_ VGND VGND VPWR VPWR _0449_ sky130_fd_sc_hd__or2_1
X_1234_ _0107_ _0225_ VGND VGND VPWR VPWR _0513_ sky130_fd_sc_hd__or2_1
X_1096_ _0370_ _0375_ _0382_ _0383_ VGND VGND VPWR VPWR _0384_ sky130_fd_sc_hd__or4_1
X_0949_ _0239_ _0240_ VGND VGND VPWR VPWR _0241_ sky130_fd_sc_hd__or2_2
XFILLER_0_33_196 VGND VGND VPWR VPWR sky130_fd_sc_hd__fill_1
XPHY_EDGE_ROW_28_Left_76 VGND VGND VPWR VPWR sky130_fd_sc_hd__decap_3
XFILLER_0_16_119 VPWR VGND VPWR VGND sky130_ef_sc_hd__decap_12
X_0734_ net134 net131 net129 net128 VGND VGND VPWR VPWR _0708_ sky130_fd_sc_hd__and4_1
X_0803_ net95 net58 net56 net101 VGND VGND VPWR VPWR _0095_ sky130_fd_sc_hd__a22o_1
XFILLER_0_21_53 VGND VGND VPWR VPWR sky130_fd_sc_hd__decap_3
XFILLER_0_21_75 VPWR VGND VPWR VGND sky130_ef_sc_hd__decap_12
XFILLER_0_46_83 VGND VGND VPWR VPWR sky130_fd_sc_hd__fill_1
X_1079_ _0058_ _0171_ VGND VGND VPWR VPWR _0367_ sky130_fd_sc_hd__or2_1
X_1148_ _0100_ _0194_ _0238_ _0314_ VGND VGND VPWR VPWR _0433_ sky130_fd_sc_hd__or4_1
X_1217_ _0705_ _0711_ _0301_ VGND VGND VPWR VPWR _0498_ sky130_fd_sc_hd__or3_1
XFILLER_0_47_277 VGND VGND VPWR VPWR sky130_fd_sc_hd__decap_3
Xhold32 net34 VGND VGND VPWR VPWR net172 sky130_fd_sc_hd__dlygate4sd3_1
Xhold21 net29 VGND VGND VPWR VPWR net161 sky130_fd_sc_hd__dlygate4sd3_1
Xhold10 net16 VGND VGND VPWR VPWR net150 sky130_fd_sc_hd__dlygate4sd3_1
XANTENNA_7 _0082_ VGND VGND VPWR VPWR sky130_fd_sc_hd__diode_2
XFILLER_0_21_188 VPWR VGND VPWR VGND sky130_ef_sc_hd__decap_12
XFILLER_0_16_75 VGND VGND VPWR VPWR sky130_fd_sc_hd__decap_8
X_1002_ _0696_ _0105_ _0290_ _0292_ VGND VGND VPWR VPWR _0294_ sky130_fd_sc_hd__or4_1
X_0717_ net133 net129 net127 net131 VGND VGND VPWR VPWR _0677_ sky130_fd_sc_hd__and4bb_1
XFILLER_0_35_269 VGND VGND VPWR VPWR sky130_fd_sc_hd__decap_3
XFILLER_0_35_225 VPWR VGND VPWR VGND sky130_ef_sc_hd__decap_12
Xoutput22 net22 VGND VGND VPWR VPWR dout0[20] sky130_fd_sc_hd__buf_2
Xoutput33 net33 VGND VGND VPWR VPWR dout0[30] sky130_fd_sc_hd__buf_2
XFILLER_0_9_3 VGND VGND VPWR VPWR sky130_fd_sc_hd__decap_3
Xoutput11 net11 VGND VGND VPWR VPWR dout0[10] sky130_fd_sc_hd__buf_2
XFILLER_0_41_206 VGND VGND VPWR VPWR sky130_fd_sc_hd__fill_1
XFILLER_0_43_51 VGND VGND VPWR VPWR sky130_fd_sc_hd__decap_4
XFILLER_0_32_228 VGND VGND VPWR VPWR sky130_fd_sc_hd__fill_2
XFILLER_0_32_217 VGND VGND VPWR VPWR sky130_fd_sc_hd__fill_1
XPHY_EDGE_ROW_15_Left_63 VGND VGND VPWR VPWR sky130_fd_sc_hd__decap_3
XFILLER_0_17_225 VGND VGND VPWR VPWR sky130_fd_sc_hd__decap_4
XFILLER_0_40_250 VGND VGND VPWR VPWR sky130_fd_sc_hd__fill_2
XFILLER_0_7_62 VGND VGND VPWR VPWR sky130_fd_sc_hd__fill_1
X_0982_ net111 net68 net66 net116 VGND VGND VPWR VPWR _0274_ sky130_fd_sc_hd__a22o_2
XTAP_TAPCELL_ROW_14_175 VGND VPWR sky130_fd_sc_hd__tapvpwrvgnd_1
Xfanout108 _0695_ VGND VGND VPWR VPWR net108 sky130_fd_sc_hd__clkbuf_2
XFILLER_0_1_111 VGND VGND VPWR VPWR sky130_fd_sc_hd__fill_1
Xfanout119 net120 VGND VGND VPWR VPWR net119 sky130_fd_sc_hd__clkbuf_2
X_1465_ clknet_2_0__leaf_clk0 net6 VGND VGND VPWR VPWR addr0_reg\[5\] sky130_fd_sc_hd__dfxtp_1
XFILLER_0_22_272 VGND VGND VPWR VPWR sky130_fd_sc_hd__decap_3
X_1396_ _0710_ _0131_ _0282_ _0285_ VGND VGND VPWR VPWR _0664_ sky130_fd_sc_hd__or4_1
XTAP_TAPCELL_ROW_37_289 VGND VPWR sky130_fd_sc_hd__tapvpwrvgnd_1
XPHY_EDGE_ROW_0_Left_48 VGND VGND VPWR VPWR sky130_fd_sc_hd__decap_3
XFILLER_0_20_209 VGND VGND VPWR VPWR sky130_fd_sc_hd__decap_4
XTAP_TAPCELL_ROW_28_245 VGND VPWR sky130_fd_sc_hd__tapvpwrvgnd_1
XTAP_TAPCELL_ROW_11_156 VGND VPWR sky130_fd_sc_hd__tapvpwrvgnd_1
X_1250_ _0693_ _0221_ _0274_ _0285_ VGND VGND VPWR VPWR _0528_ sky130_fd_sc_hd__or4_1
X_1181_ _0355_ _0457_ _0461_ _0463_ VGND VGND VPWR VPWR _0464_ sky130_fd_sc_hd__or4_1
XFILLER_0_46_139 VGND VGND VPWR VPWR sky130_fd_sc_hd__fill_1
XFILLER_0_6_214 VPWR VGND VPWR VGND sky130_ef_sc_hd__decap_12
XFILLER_0_40_85 VGND VGND VPWR VPWR sky130_fd_sc_hd__fill_1
XFILLER_0_40_41 VPWR VGND VPWR VGND sky130_ef_sc_hd__decap_12
X_0896_ _0186_ _0187_ VGND VGND VPWR VPWR _0188_ sky130_fd_sc_hd__or2_1
X_0965_ _0144_ _0216_ _0255_ _0256_ VGND VGND VPWR VPWR _0257_ sky130_fd_sc_hd__or4_2
X_1448_ clknet_2_3__leaf_clk0 _0020_ VGND VGND VPWR VPWR net22 sky130_fd_sc_hd__dfxtp_1
XFILLER_0_4_85 VPWR VGND VPWR VGND sky130_ef_sc_hd__decap_12
XFILLER_0_4_41 VPWR VGND VPWR VGND sky130_ef_sc_hd__decap_12
XTAP_TAPCELL_ROW_2_113 VGND VPWR sky130_fd_sc_hd__tapvpwrvgnd_1
X_1379_ net43 _0643_ _0646_ net149 net139 VGND VGND VPWR VPWR _0024_ sky130_fd_sc_hd__o32a_1
XTAP_TAPCELL_ROW_25_226 VGND VPWR sky130_fd_sc_hd__tapvpwrvgnd_1
XTAP_TAPCELL_ROW_33_270 VGND VPWR sky130_fd_sc_hd__tapvpwrvgnd_1
Xfanout90 _0708_ VGND VGND VPWR VPWR net90 sky130_fd_sc_hd__clkbuf_2
X_0750_ net134 net132 net130 net128 VGND VGND VPWR VPWR _0042_ sky130_fd_sc_hd__and4bb_1
XFILLER_0_36_183 VGND VGND VPWR VPWR sky130_fd_sc_hd__decap_3
X_1233_ _0094_ _0095_ _0261_ _0511_ VGND VGND VPWR VPWR _0512_ sky130_fd_sc_hd__or4_2
XFILLER_0_19_53 VGND VGND VPWR VPWR sky130_fd_sc_hd__decap_3
XFILLER_0_19_64 VPWR VGND VPWR VGND sky130_ef_sc_hd__decap_12
X_1302_ _0101_ _0262_ _0574_ _0575_ VGND VGND VPWR VPWR _0576_ sky130_fd_sc_hd__or4_1
XTAP_TAPCELL_ROW_47_340 VGND VPWR sky130_fd_sc_hd__tapvpwrvgnd_1
XFILLER_0_35_30 VGND VGND VPWR VPWR sky130_fd_sc_hd__decap_8
X_1164_ _0057_ _0171_ _0246_ _0447_ VGND VGND VPWR VPWR _0448_ sky130_fd_sc_hd__or4_1
X_1095_ _0240_ _0365_ _0368_ _0373_ VGND VGND VPWR VPWR _0383_ sky130_fd_sc_hd__or4_1
XFILLER_0_34_109 VGND VGND VPWR VPWR sky130_fd_sc_hd__fill_1
XTAP_TAPCELL_ROW_30_251 VGND VPWR sky130_fd_sc_hd__tapvpwrvgnd_1
X_0948_ net74 net54 net52 net72 VGND VGND VPWR VPWR _0240_ sky130_fd_sc_hd__a22o_2
X_0879_ _0059_ _0170_ VGND VGND VPWR VPWR _0171_ sky130_fd_sc_hd__or2_2
XFILLER_0_33_175 VGND VGND VPWR VPWR sky130_fd_sc_hd__fill_1
XPHY_EDGE_ROW_3_Left_51 VGND VGND VPWR VPWR sky130_fd_sc_hd__decap_3
XTAP_TAPCELL_ROW_44_321 VGND VPWR sky130_fd_sc_hd__tapvpwrvgnd_1
X_0802_ net89 net58 net55 net84 VGND VGND VPWR VPWR _0094_ sky130_fd_sc_hd__a22o_2
XFILLER_0_21_87 VGND VGND VPWR VPWR sky130_fd_sc_hd__decap_3
X_0733_ net102 net94 net92 net96 VGND VGND VPWR VPWR _0707_ sky130_fd_sc_hd__a22o_2
X_1216_ _0189_ _0371_ _0428_ _0490_ VGND VGND VPWR VPWR _0497_ sky130_fd_sc_hd__or4_1
XFILLER_0_47_212 VPWR VGND VPWR VGND sky130_ef_sc_hd__decap_12
X_1147_ _0140_ _0229_ VGND VGND VPWR VPWR _0432_ sky130_fd_sc_hd__or2_1
X_1078_ _0189_ _0296_ _0297_ VGND VGND VPWR VPWR _0366_ sky130_fd_sc_hd__or3_2
XFILLER_0_30_101 VGND VGND VPWR VPWR sky130_fd_sc_hd__fill_2
XPHY_EDGE_ROW_45_Left_93 VGND VGND VPWR VPWR sky130_fd_sc_hd__decap_3
Xhold22 net35 VGND VGND VPWR VPWR net162 sky130_fd_sc_hd__dlygate4sd3_1
Xhold11 net28 VGND VGND VPWR VPWR net151 sky130_fd_sc_hd__dlygate4sd3_1
XANTENNA_8 _0130_ VGND VGND VPWR VPWR sky130_fd_sc_hd__diode_2
X_1001_ _0696_ _0292_ VGND VGND VPWR VPWR _0293_ sky130_fd_sc_hd__or2_1
XFILLER_0_29_223 VGND VGND VPWR VPWR sky130_fd_sc_hd__fill_1
XFILLER_0_44_237 VGND VGND VPWR VPWR sky130_fd_sc_hd__fill_1
XFILLER_0_12_101 VPWR VGND VPWR VGND sky130_ef_sc_hd__decap_12
X_0716_ net119 net122 net126 net124 VGND VGND VPWR VPWR _0667_ sky130_fd_sc_hd__and4b_1
XFILLER_0_32_3 VGND VGND VPWR VPWR sky130_fd_sc_hd__fill_1
XFILLER_0_35_237 VGND VGND VPWR VPWR sky130_fd_sc_hd__decap_6
XFILLER_0_35_204 VPWR VGND VPWR VGND sky130_ef_sc_hd__decap_12
XFILLER_0_43_281 VGND VGND VPWR VPWR sky130_fd_sc_hd__fill_2
Xoutput23 net23 VGND VGND VPWR VPWR dout0[21] sky130_fd_sc_hd__buf_2
Xoutput34 net34 VGND VGND VPWR VPWR dout0[31] sky130_fd_sc_hd__buf_2
Xoutput12 net12 VGND VGND VPWR VPWR dout0[11] sky130_fd_sc_hd__buf_2
XFILLER_0_5_109 VGND VGND VPWR VPWR sky130_fd_sc_hd__decap_3
XFILLER_0_4_197 VGND VGND VPWR VPWR sky130_fd_sc_hd__decap_4
XFILLER_0_25_281 VGND VGND VPWR VPWR sky130_fd_sc_hd__fill_2
XTAP_TAPCELL_ROW_8_141 VGND VPWR sky130_fd_sc_hd__tapvpwrvgnd_1
XFILLER_0_16_281 VGND VGND VPWR VPWR sky130_fd_sc_hd__fill_2
XPHY_EDGE_ROW_32_Left_80 VGND VGND VPWR VPWR sky130_fd_sc_hd__decap_3
X_0981_ _0093_ _0094_ _0095_ _0270_ VGND VGND VPWR VPWR _0273_ sky130_fd_sc_hd__or4_2
XFILLER_0_38_96 VGND VGND VPWR VPWR sky130_fd_sc_hd__fill_1
X_1464_ clknet_2_0__leaf_clk0 net5 VGND VGND VPWR VPWR addr0_reg\[4\] sky130_fd_sc_hd__dfxtp_1
XFILLER_0_1_167 VGND VGND VPWR VPWR sky130_fd_sc_hd__fill_1
X_1395_ _0705_ _0203_ _0275_ _0277_ VGND VGND VPWR VPWR _0663_ sky130_fd_sc_hd__or4_1
Xfanout109 _0694_ VGND VGND VPWR VPWR net109 sky130_fd_sc_hd__buf_2
XTAP_TAPCELL_ROW_11_157 VGND VPWR sky130_fd_sc_hd__tapvpwrvgnd_1
X_1180_ _0053_ _0275_ _0462_ VGND VGND VPWR VPWR _0463_ sky130_fd_sc_hd__or3_1
XFILLER_0_46_129 VGND VGND VPWR VPWR sky130_fd_sc_hd__fill_2
XFILLER_0_40_53 VPWR VGND VPWR VGND sky130_ef_sc_hd__decap_12
XFILLER_0_6_226 VPWR VGND VPWR VGND sky130_ef_sc_hd__decap_12
X_0964_ _0218_ _0224_ _0228_ _0231_ VGND VGND VPWR VPWR _0256_ sky130_fd_sc_hd__or4_1
XFILLER_0_40_97 VGND VGND VPWR VPWR sky130_fd_sc_hd__decap_8
X_0895_ net114 net106 net98 net118 VGND VGND VPWR VPWR _0187_ sky130_fd_sc_hd__a22o_2
XFILLER_0_10_221 VGND VGND VPWR VPWR sky130_fd_sc_hd__decap_8
X_1447_ clknet_2_1__leaf_clk0 _0019_ VGND VGND VPWR VPWR net20 sky130_fd_sc_hd__dfxtp_1
X_1378_ _0425_ _0645_ VGND VGND VPWR VPWR _0646_ sky130_fd_sc_hd__or2_1
XFILLER_0_4_97 VGND VGND VPWR VPWR sky130_fd_sc_hd__decap_8
XFILLER_0_4_53 VPWR VGND VPWR VGND sky130_ef_sc_hd__decap_12
XTAP_TAPCELL_ROW_2_114 VGND VPWR sky130_fd_sc_hd__tapvpwrvgnd_1
XFILLER_0_10_276 VGND VGND VPWR VPWR sky130_fd_sc_hd__decap_3
XTAP_TAPCELL_ROW_25_227 VGND VPWR sky130_fd_sc_hd__tapvpwrvgnd_1
XFILLER_0_5_281 VGND VGND VPWR VPWR sky130_fd_sc_hd__fill_2
XFILLER_0_36_151 VGND VGND VPWR VPWR sky130_fd_sc_hd__decap_8
Xfanout91 _0706_ VGND VGND VPWR VPWR net91 sky130_fd_sc_hd__buf_2