*SPEF "ieee 1481-1999"
*DESIGN "cust_rom"
*DATE "01:35:45 Wednesday September 25, 2024"
*VENDOR "The OpenROAD Project"
*PROGRAM "OpenROAD"
*VERSION "b16bda7e82721d10566ff7e2b68f1ff0be9f9e38"
*DESIGN_FLOW "NAME_SCOPE LOCAL" "PIN_CAP NONE"
*DIVIDER /
*DELIMITER :
*BUS_DELIMITER []
*T_UNIT 1 NS
*C_UNIT 1 PF
*R_UNIT 1 OHM
*L_UNIT 1 HENRY

*NAME_MAP
*3 addr0[0]
*4 addr0[1]
*5 addr0[2]
*6 addr0[3]
*7 addr0[4]
*8 addr0[5]
*9 addr0[6]
*10 addr0[7]
*11 clk0
*12 cs0
*13 dout0[0]
*14 dout0[10]
*15 dout0[11]
*16 dout0[12]
*17 dout0[13]
*18 dout0[14]
*19 dout0[15]
*20 dout0[16]
*21 dout0[17]
*22 dout0[18]
*23 dout0[19]
*24 dout0[1]
*25 dout0[20]
*26 dout0[21]
*27 dout0[22]
*28 dout0[23]
*29 dout0[24]
*30 dout0[25]
*31 dout0[26]
*32 dout0[27]
*33 dout0[28]
*34 dout0[29]
*35 dout0[2]
*36 dout0[30]
*37 dout0[31]
*38 dout0[3]
*39 dout0[4]
*40 dout0[5]
*41 dout0[6]
*42 dout0[7]
*43 dout0[8]
*44 dout0[9]
*45 _0000_
*46 _0001_
*47 _0002_
*48 _0003_
*49 _0004_
*50 _0005_
*51 _0006_
*52 _0007_
*53 _0008_
*54 _0009_
*55 _0010_
*56 _0011_
*57 _0012_
*58 _0013_
*59 _0014_
*60 _0015_
*61 _0016_
*62 _0017_
*63 _0018_
*64 _0019_
*65 _0020_
*66 _0021_
*67 _0022_
*68 _0023_
*69 _0024_
*70 _0025_
*71 _0026_
*72 _0027_
*73 _0028_
*74 _0029_
*75 _0030_
*76 _0031_
*77 _0032_
*78 _0033_
*79 _0034_
*80 _0035_
*81 _0036_
*82 _0037_
*83 _0038_
*84 _0039_
*85 _0040_
*86 _0041_
*87 _0042_
*88 _0043_
*89 _0044_
*90 _0045_
*91 _0046_
*92 _0047_
*93 _0048_
*94 _0049_
*95 _0050_
*96 _0051_
*97 _0052_
*98 _0053_
*99 _0054_
*100 _0055_
*101 _0056_
*102 _0057_
*103 _0058_
*104 _0059_
*105 _0060_
*106 _0061_
*107 _0062_
*108 _0063_
*109 _0064_
*110 _0065_
*111 _0066_
*112 _0067_
*113 _0068_
*114 _0069_
*115 _0070_
*116 _0071_
*117 _0072_
*118 _0073_
*119 _0074_
*120 _0075_
*121 _0076_
*122 _0077_
*123 _0078_
*124 _0079_
*125 _0080_
*126 _0081_
*127 _0082_
*128 _0083_
*129 _0084_
*130 _0085_
*131 _0086_
*132 _0087_
*133 _0088_
*134 _0089_
*135 _0090_
*136 _0091_
*137 _0092_
*138 _0093_
*139 _0094_
*140 _0095_
*141 _0096_
*142 _0097_
*143 _0098_
*144 _0099_
*145 _0100_
*146 _0101_
*147 _0102_
*148 _0103_
*149 _0104_
*150 _0105_
*151 _0106_
*152 _0107_
*153 _0108_
*154 _0109_
*155 _0110_
*156 _0111_
*157 _0112_
*158 _0113_
*159 _0114_
*160 _0115_
*161 _0116_
*162 _0117_
*163 _0118_
*164 _0119_
*165 _0120_
*166 _0121_
*167 _0122_
*168 _0123_
*169 _0124_
*170 _0125_
*171 _0126_
*172 _0127_
*173 _0128_
*174 _0129_
*175 _0130_
*176 _0131_
*177 _0132_
*178 _0133_
*179 _0134_
*180 _0135_
*181 _0136_
*182 _0137_
*183 _0138_
*184 _0139_
*185 _0140_
*186 _0141_
*187 _0142_
*188 _0143_
*189 _0144_
*190 _0145_
*191 _0146_
*192 _0147_
*193 _0148_
*194 _0149_
*195 _0150_
*196 _0151_
*197 _0152_
*198 _0153_
*199 _0154_
*200 _0155_
*201 _0156_
*202 _0157_
*203 _0158_
*204 _0159_
*205 _0160_
*206 _0161_
*207 _0162_
*208 _0163_
*209 _0164_
*210 _0165_
*211 _0166_
*212 _0167_
*213 _0168_
*214 _0169_
*215 _0170_
*216 _0171_
*217 _0172_
*218 _0173_
*219 _0174_
*220 _0175_
*221 _0176_
*222 _0177_
*223 _0178_
*224 _0179_
*225 _0180_
*226 _0181_
*227 _0182_
*228 _0183_
*229 _0184_
*230 _0185_
*231 _0186_
*232 _0187_
*233 _0188_
*234 _0189_
*235 _0190_
*236 _0191_
*237 _0192_
*238 _0193_
*239 _0194_
*240 _0195_
*241 _0196_
*242 _0197_
*243 _0198_
*244 _0199_
*245 _0200_
*246 _0201_
*247 _0202_
*248 _0203_
*249 _0204_
*250 _0205_
*251 _0206_
*252 _0207_
*253 _0208_
*254 _0209_
*255 _0210_
*256 _0211_
*257 _0212_
*258 _0213_
*259 _0214_
*260 _0215_
*261 _0216_
*262 _0217_
*263 _0218_
*264 _0219_
*265 _0220_
*266 _0221_
*267 _0222_
*268 _0223_
*269 _0224_
*270 _0225_
*271 _0226_
*272 _0227_
*273 _0228_
*274 _0229_
*275 _0230_
*276 _0231_
*277 _0232_
*278 _0233_
*279 _0234_
*280 _0235_
*281 _0236_
*282 _0237_
*283 _0238_
*284 _0239_
*285 _0240_
*286 _0241_
*287 _0242_
*288 _0243_
*289 _0244_
*290 _0245_
*291 _0246_
*292 _0247_
*293 _0248_
*294 _0249_
*295 _0250_
*296 _0251_
*297 _0252_
*298 _0253_
*299 _0254_
*300 _0255_
*301 _0256_
*302 _0257_
*303 _0258_
*304 _0259_
*305 _0260_
*306 _0261_
*307 _0262_
*308 _0263_
*309 _0264_
*310 _0265_
*311 _0266_
*312 _0267_
*313 _0268_
*314 _0269_
*315 _0270_
*316 _0271_
*317 _0272_
*318 _0273_
*319 _0274_
*320 _0275_
*321 _0276_
*322 _0277_
*323 _0278_
*324 _0279_
*325 _0280_
*326 _0281_
*327 _0282_
*328 _0283_
*329 _0284_
*330 _0285_
*331 _0286_
*332 _0287_
*333 _0288_
*334 _0289_
*335 _0290_
*336 _0291_
*337 _0292_
*338 _0293_
*339 _0294_
*340 _0295_
*341 _0296_
*342 _0297_
*343 _0298_
*344 _0299_
*345 _0300_
*346 _0301_
*347 _0302_
*348 _0303_
*349 _0304_
*350 _0305_
*351 _0306_
*352 _0307_
*353 _0308_
*354 _0309_
*355 _0310_
*356 _0311_
*357 _0312_
*358 _0313_
*359 _0314_
*360 _0315_
*361 _0316_
*362 _0317_
*363 _0318_
*364 _0319_
*365 _0320_
*366 _0321_
*367 _0322_
*368 _0323_
*369 _0324_
*370 _0325_
*371 _0326_
*372 _0327_
*373 _0328_
*374 _0329_
*375 _0330_
*376 _0331_
*377 _0332_
*378 _0333_
*379 _0334_
*380 _0335_
*381 _0336_
*382 _0337_
*383 _0338_
*384 _0339_
*385 _0340_
*386 _0341_
*387 _0342_
*388 _0343_
*389 _0344_
*390 _0345_
*391 _0346_
*392 _0347_
*393 _0348_
*394 _0349_
*395 _0350_
*396 _0351_
*397 _0352_
*398 _0353_
*399 _0354_
*400 _0355_
*401 _0356_
*402 _0357_
*403 _0358_
*404 _0359_
*405 _0360_
*406 _0361_
*407 _0362_
*408 _0363_
*409 _0364_
*410 _0365_
*411 _0366_
*412 _0367_
*413 _0368_
*414 _0369_
*415 _0370_
*416 _0371_
*417 _0372_
*418 _0373_
*419 _0374_
*420 _0375_
*421 _0376_
*422 _0377_
*423 _0378_
*424 _0379_
*425 _0380_
*426 _0381_
*427 _0382_
*428 _0383_
*429 _0384_
*430 _0385_
*431 _0386_
*432 _0387_
*433 _0388_
*434 _0389_
*435 _0390_
*436 _0391_
*437 _0392_
*438 _0393_
*439 _0394_
*440 _0395_
*441 _0396_
*442 _0397_
*443 _0398_
*444 _0399_
*445 _0400_
*446 _0401_
*447 _0402_
*448 _0403_
*449 _0404_
*450 _0405_
*451 _0406_
*452 _0407_
*453 _0408_
*454 _0409_
*455 _0410_
*456 _0411_
*457 _0412_
*458 _0413_
*459 _0414_
*460 _0415_
*461 _0416_
*462 _0417_
*463 _0418_
*464 _0419_
*465 _0420_
*466 _0421_
*467 _0422_
*468 _0423_
*469 _0424_
*470 _0425_
*471 _0426_
*472 _0427_
*473 _0428_
*474 _0429_
*475 _0430_
*476 _0431_
*477 _0432_
*478 _0433_
*479 _0434_
*480 _0435_
*481 _0436_
*482 _0437_
*483 _0438_
*484 _0439_
*485 _0440_
*486 _0441_
*487 _0442_
*488 _0443_
*489 _0444_
*490 _0445_
*491 _0446_
*492 _0447_
*493 _0448_
*494 _0449_
*495 _0450_
*496 _0451_
*497 _0452_
*498 _0453_
*499 _0454_
*500 _0455_
*501 _0456_
*502 _0457_
*503 _0458_
*504 _0459_
*505 _0460_
*506 _0461_
*507 _0462_
*508 _0463_
*509 _0464_
*510 _0465_
*511 _0466_
*512 _0467_
*513 _0468_
*514 _0469_
*515 _0470_
*516 _0471_
*517 _0472_
*518 _0473_
*519 _0474_
*520 _0475_
*521 _0476_
*522 _0477_
*523 _0478_
*524 _0479_
*525 _0480_
*526 _0481_
*527 _0482_
*528 _0483_
*529 _0484_
*530 _0485_
*531 _0486_
*532 _0487_
*533 _0488_
*534 _0489_
*535 _0490_
*536 _0491_
*537 _0492_
*538 _0493_
*539 _0494_
*540 _0495_
*541 _0496_
*542 _0497_
*543 _0498_
*544 _0499_
*545 _0500_
*546 _0501_
*547 _0502_
*548 _0503_
*549 _0504_
*550 _0505_
*551 _0506_
*552 _0507_
*553 _0508_
*554 _0509_
*555 _0510_
*556 _0511_
*557 _0512_
*558 _0513_
*559 _0514_
*560 _0515_
*561 _0516_
*562 _0517_
*563 _0518_
*564 _0519_
*565 _0520_
*566 _0521_
*567 _0522_
*568 _0523_
*569 _0524_
*570 _0525_
*571 _0526_
*572 _0527_
*573 _0528_
*574 _0529_
*575 _0530_
*576 _0531_
*577 _0532_
*578 _0533_
*579 _0534_
*580 _0535_
*581 _0536_
*582 _0537_
*583 _0538_
*584 _0539_
*585 _0540_
*586 _0541_
*587 _0542_
*588 _0543_
*589 _0544_
*590 _0545_
*591 _0546_
*592 _0547_
*593 _0548_
*594 _0549_
*595 _0550_
*596 _0551_
*597 _0552_
*598 _0553_
*599 _0554_
*600 _0555_
*601 _0556_
*602 _0557_
*603 _0558_
*604 _0559_
*605 _0560_
*606 _0561_
*607 _0562_
*608 _0563_
*609 _0564_
*610 _0565_
*611 _0566_
*612 _0567_
*613 _0568_
*614 _0569_
*615 _0570_
*616 _0571_
*617 _0572_
*618 _0573_
*619 _0574_
*620 _0575_
*621 _0576_
*622 _0577_
*623 _0578_
*624 _0579_
*625 _0580_
*626 _0581_
*627 _0582_
*628 _0583_
*629 _0584_
*630 _0585_
*631 _0586_
*632 _0587_
*633 _0588_
*634 _0589_
*635 _0590_
*636 _0591_
*637 _0592_
*638 _0593_
*639 _0594_
*640 _0595_
*641 _0596_
*642 _0597_
*643 _0598_
*644 _0599_
*645 _0600_
*646 _0601_
*647 _0602_
*648 _0603_
*649 _0604_
*650 _0605_
*651 _0606_
*652 _0607_
*653 _0608_
*654 _0609_
*655 _0610_
*656 _0611_
*657 _0612_
*658 _0613_
*659 _0614_
*660 _0615_
*661 _0616_
*662 _0617_
*663 _0618_
*664 _0619_
*665 _0620_
*666 _0621_
*667 _0622_
*668 _0623_
*669 _0624_
*670 _0625_
*671 _0626_
*672 _0627_
*673 _0628_
*674 _0629_
*675 _0630_
*676 _0631_
*677 _0632_
*678 _0633_
*679 _0634_
*680 _0635_
*681 _0636_
*682 _0637_
*683 _0638_
*684 _0639_
*685 _0640_
*686 _0641_
*687 _0642_
*688 _0643_
*689 _0644_
*690 _0645_
*691 _0646_
*692 _0647_
*693 _0648_
*694 _0649_
*695 _0650_
*696 _0651_
*697 _0652_
*698 _0653_
*699 _0654_
*700 _0655_
*701 _0656_
*702 _0657_
*703 _0658_
*704 _0659_
*705 _0660_
*706 _0661_
*707 _0662_
*708 _0663_
*709 _0664_
*710 _0665_
*711 _0666_
*712 _0667_
*713 _0668_
*714 _0669_
*715 _0670_
*716 _0671_
*717 _0672_
*718 _0673_
*719 _0674_
*720 _0675_
*721 _0676_
*722 _0677_
*723 _0678_
*724 _0679_
*725 _0680_
*726 _0681_
*727 _0682_
*728 _0683_
*729 _0684_
*730 _0685_
*731 _0686_
*732 _0687_
*733 _0688_
*734 _0689_
*735 _0690_
*736 _0691_
*737 _0692_
*738 _0693_
*739 _0694_
*740 _0695_
*741 _0696_
*742 _0697_
*743 _0698_
*744 _0699_
*745 _0700_
*746 _0701_
*747 _0702_
*748 _0703_
*749 _0704_
*750 _0705_
*751 _0706_
*752 _0707_
*753 _0708_
*754 _0709_
*755 _0710_
*756 _0711_
*757 _0712_
*758 _0713_
*759 clknet_0_clk0
*760 clknet_2_0__leaf_clk0
*761 clknet_2_1__leaf_clk0
*762 clknet_2_2__leaf_clk0
*763 clknet_2_3__leaf_clk0
*764 net1
*765 net10
*766 net100
*767 net101
*768 net102
*769 net103
*770 net104
*771 net105
*772 net106
*773 net107
*774 net108
*775 net109
*776 net11
*777 net110
*778 net111
*779 net112
*780 net113
*781 net114
*782 net115
*783 net116
*784 net117
*785 net118
*786 net119
*787 net12
*788 net120
*789 net121
*790 net122
*791 net123
*792 net124
*793 net125
*794 net126
*795 net127
*796 net128
*797 net129
*798 net13
*799 net130
*800 net131
*801 net132
*802 net133
*803 net134
*804 net135
*805 net136
*806 net137
*807 net138
*808 net139
*809 net14
*810 net140
*811 net141
*812 net142
*813 net143
*814 net144
*815 net145
*816 net146
*817 net147
*818 net148
*819 net149
*820 net15
*821 net150
*822 net151
*823 net152
*824 net153
*825 net154
*826 net155
*827 net156
*828 net157
*829 net158
*830 net159
*831 net16
*832 net160
*833 net161
*834 net162
*835 net163
*836 net164
*837 net165
*838 net166
*839 net167
*840 net168
*841 net169
*842 net17
*843 net170
*844 net171
*845 net172
*846 net173
*847 net174
*848 net175
*849 net176
*850 net177
*851 net18
*852 net19
*853 net2
*854 net20
*855 net21
*856 net22
*857 net23
*858 net24
*859 net25
*860 net26
*861 net27
*862 net28
*863 net29
*864 net3
*865 net30
*866 net31
*867 net32
*868 net33
*869 net34
*870 net35
*871 net36
*872 net37
*873 net38
*874 net39
*875 net4
*876 net40
*877 net41
*878 net42
*879 net43
*880 net44
*881 net45
*882 net46
*883 net47
*884 net48
*885 net49
*886 net5
*887 net50
*888 net51
*889 net52
*890 net53
*891 net54
*892 net55
*893 net56
*894 net57
*895 net58
*896 net59
*897 net6
*898 net60
*899 net61
*900 net62
*901 net63
*902 net64
*903 net65
*904 net66
*905 net67
*906 net68
*907 net69
*908 net7
*909 net70
*910 net71
*911 net72
*912 net73
*913 net74
*914 net75
*915 net76
*916 net77
*917 net78
*918 net79
*919 net8
*920 net80
*921 net81
*922 net82
*923 net83
*924 net84
*925 net85
*926 net86
*927 net87
*928 net88
*929 net89
*930 net9
*931 net90
*932 net91
*933 net92
*934 net93
*935 net94
*936 net95
*937 net96
*938 net97
*939 net98
*940 net99
*941 ANTENNA_1
*942 ANTENNA_10
*943 ANTENNA_11
*944 ANTENNA_12
*945 ANTENNA_13
*946 ANTENNA_14
*947 ANTENNA_15
*948 ANTENNA_16
*949 ANTENNA_17
*950 ANTENNA_18
*951 ANTENNA_19
*952 ANTENNA_2
*953 ANTENNA_20
*954 ANTENNA_21
*955 ANTENNA_22
*956 ANTENNA_23
*957 ANTENNA_24
*958 ANTENNA_25
*959 ANTENNA_26
*960 ANTENNA_27
*961 ANTENNA_28
*962 ANTENNA_29
*963 ANTENNA_3
*964 ANTENNA_30
*965 ANTENNA_4
*966 ANTENNA_5
*967 ANTENNA_6
*968 ANTENNA_7
*969 ANTENNA_8
*970 ANTENNA_9
*971 FILLER_0_0_109
*972 FILLER_0_0_113
*973 FILLER_0_0_125
*974 FILLER_0_0_137
*975 FILLER_0_0_141
*976 FILLER_0_0_15
*977 FILLER_0_0_153
*978 FILLER_0_0_165
*979 FILLER_0_0_169
*980 FILLER_0_0_181
*981 FILLER_0_0_193
*982 FILLER_0_0_197
*983 FILLER_0_0_209
*984 FILLER_0_0_221
*985 FILLER_0_0_225
*986 FILLER_0_0_237
*987 FILLER_0_0_249
*988 FILLER_0_0_253
*989 FILLER_0_0_265
*990 FILLER_0_0_27
*991 FILLER_0_0_277
*992 FILLER_0_0_281
*993 FILLER_0_0_29
*994 FILLER_0_0_293
*995 FILLER_0_0_3
*996 FILLER_0_0_305
*997 FILLER_0_0_309
*998 FILLER_0_0_321
*999 FILLER_0_0_333
*1000 FILLER_0_0_337
*1001 FILLER_0_0_349
*1002 FILLER_0_0_361
*1003 FILLER_0_0_365
*1004 FILLER_0_0_377
*1005 FILLER_0_0_389
*1006 FILLER_0_0_393
*1007 FILLER_0_0_405
*1008 FILLER_0_0_41
*1009 FILLER_0_0_417
*1010 FILLER_0_0_421
*1011 FILLER_0_0_433
*1012 FILLER_0_0_445
*1013 FILLER_0_0_449
*1014 FILLER_0_0_461
*1015 FILLER_0_0_53
*1016 FILLER_0_0_57
*1017 FILLER_0_0_69
*1018 FILLER_0_0_81
*1019 FILLER_0_0_85
*1020 FILLER_0_0_97
*1021 FILLER_0_10_109
*1022 FILLER_0_10_121
*1023 FILLER_0_10_133
*1024 FILLER_0_10_139
*1025 FILLER_0_10_141
*1026 FILLER_0_10_15
*1027 FILLER_0_10_153
*1028 FILLER_0_10_165
*1029 FILLER_0_10_177
*1030 FILLER_0_10_189
*1031 FILLER_0_10_195
*1032 FILLER_0_10_197
*1033 FILLER_0_10_209
*1034 FILLER_0_10_221
*1035 FILLER_0_10_233
*1036 FILLER_0_10_245
*1037 FILLER_0_10_251
*1038 FILLER_0_10_253
*1039 FILLER_0_10_265
*1040 FILLER_0_10_27
*1041 FILLER_0_10_277
*1042 FILLER_0_10_289
*1043 FILLER_0_10_29
*1044 FILLER_0_10_3
*1045 FILLER_0_10_301
*1046 FILLER_0_10_307
*1047 FILLER_0_10_309
*1048 FILLER_0_10_321
*1049 FILLER_0_10_333
*1050 FILLER_0_10_345
*1051 FILLER_0_10_357
*1052 FILLER_0_10_363
*1053 FILLER_0_10_365
*1054 FILLER_0_10_377
*1055 FILLER_0_10_389
*1056 FILLER_0_10_401
*1057 FILLER_0_10_41
*1058 FILLER_0_10_413
*1059 FILLER_0_10_419
*1060 FILLER_0_10_421
*1061 FILLER_0_10_433
*1062 FILLER_0_10_445
*1063 FILLER_0_10_457
*1064 FILLER_0_10_469
*1065 FILLER_0_10_53
*1066 FILLER_0_10_65
*1067 FILLER_0_10_77
*1068 FILLER_0_10_83
*1069 FILLER_0_10_85
*1070 FILLER_0_10_97
*1071 FILLER_0_11_105
*1072 FILLER_0_11_111
*1073 FILLER_0_11_113
*1074 FILLER_0_11_125
*1075 FILLER_0_11_137
*1076 FILLER_0_11_149
*1077 FILLER_0_11_15
*1078 FILLER_0_11_161
*1079 FILLER_0_11_167
*1080 FILLER_0_11_169
*1081 FILLER_0_11_181
*1082 FILLER_0_11_193
*1083 FILLER_0_11_205
*1084 FILLER_0_11_217
*1085 FILLER_0_11_223
*1086 FILLER_0_11_225
*1087 FILLER_0_11_237
*1088 FILLER_0_11_249
*1089 FILLER_0_11_261
*1090 FILLER_0_11_27
*1091 FILLER_0_11_273
*1092 FILLER_0_11_279
*1093 FILLER_0_11_281
*1094 FILLER_0_11_293
*1095 FILLER_0_11_3
*1096 FILLER_0_11_305
*1097 FILLER_0_11_317
*1098 FILLER_0_11_329
*1099 FILLER_0_11_335
*1100 FILLER_0_11_337
*1101 FILLER_0_11_349
*1102 FILLER_0_11_361
*1103 FILLER_0_11_373
*1104 FILLER_0_11_385
*1105 FILLER_0_11_39
*1106 FILLER_0_11_391
*1107 FILLER_0_11_393
*1108 FILLER_0_11_405
*1109 FILLER_0_11_417
*1110 FILLER_0_11_429
*1111 FILLER_0_11_441
*1112 FILLER_0_11_447
*1113 FILLER_0_11_449
*1114 FILLER_0_11_461
*1115 FILLER_0_11_51
*1116 FILLER_0_11_55
*1117 FILLER_0_11_57
*1118 FILLER_0_11_69
*1119 FILLER_0_11_81
*1120 FILLER_0_11_93
*1121 FILLER_0_12_109
*1122 FILLER_0_12_121
*1123 FILLER_0_12_133
*1124 FILLER_0_12_139
*1125 FILLER_0_12_141
*1126 FILLER_0_12_15
*1127 FILLER_0_12_153
*1128 FILLER_0_12_165
*1129 FILLER_0_12_177
*1130 FILLER_0_12_189
*1131 FILLER_0_12_195
*1132 FILLER_0_12_197
*1133 FILLER_0_12_209
*1134 FILLER_0_12_221
*1135 FILLER_0_12_233
*1136 FILLER_0_12_245
*1137 FILLER_0_12_251
*1138 FILLER_0_12_253
*1139 FILLER_0_12_265
*1140 FILLER_0_12_27
*1141 FILLER_0_12_277
*1142 FILLER_0_12_289
*1143 FILLER_0_12_29
*1144 FILLER_0_12_3
*1145 FILLER_0_12_301
*1146 FILLER_0_12_307
*1147 FILLER_0_12_309
*1148 FILLER_0_12_321
*1149 FILLER_0_12_333
*1150 FILLER_0_12_345
*1151 FILLER_0_12_357
*1152 FILLER_0_12_363
*1153 FILLER_0_12_365
*1154 FILLER_0_12_377
*1155 FILLER_0_12_389
*1156 FILLER_0_12_401
*1157 FILLER_0_12_41
*1158 FILLER_0_12_413
*1159 FILLER_0_12_419
*1160 FILLER_0_12_421
*1161 FILLER_0_12_433
*1162 FILLER_0_12_445
*1163 FILLER_0_12_457
*1164 FILLER_0_12_469
*1165 FILLER_0_12_53
*1166 FILLER_0_12_65
*1167 FILLER_0_12_77
*1168 FILLER_0_12_83
*1169 FILLER_0_12_85
*1170 FILLER_0_12_97
*1171 FILLER_0_13_105
*1172 FILLER_0_13_111
*1173 FILLER_0_13_113
*1174 FILLER_0_13_125
*1175 FILLER_0_13_137
*1176 FILLER_0_13_149
*1177 FILLER_0_13_15
*1178 FILLER_0_13_161
*1179 FILLER_0_13_167
*1180 FILLER_0_13_169
*1181 FILLER_0_13_181
*1182 FILLER_0_13_193
*1183 FILLER_0_13_205
*1184 FILLER_0_13_217
*1185 FILLER_0_13_223
*1186 FILLER_0_13_225
*1187 FILLER_0_13_237
*1188 FILLER_0_13_249
*1189 FILLER_0_13_261
*1190 FILLER_0_13_27
*1191 FILLER_0_13_273
*1192 FILLER_0_13_279
*1193 FILLER_0_13_281
*1194 FILLER_0_13_293
*1195 FILLER_0_13_3
*1196 FILLER_0_13_305
*1197 FILLER_0_13_317
*1198 FILLER_0_13_329
*1199 FILLER_0_13_335
*1200 FILLER_0_13_337
*1201 FILLER_0_13_349
*1202 FILLER_0_13_361
*1203 FILLER_0_13_373
*1204 FILLER_0_13_385
*1205 FILLER_0_13_39
*1206 FILLER_0_13_391
*1207 FILLER_0_13_393
*1208 FILLER_0_13_405
*1209 FILLER_0_13_417
*1210 FILLER_0_13_429
*1211 FILLER_0_13_441
*1212 FILLER_0_13_447
*1213 FILLER_0_13_449
*1214 FILLER_0_13_461
*1215 FILLER_0_13_51
*1216 FILLER_0_13_55
*1217 FILLER_0_13_57
*1218 FILLER_0_13_69
*1219 FILLER_0_13_81
*1220 FILLER_0_13_93
*1221 FILLER_0_14_109
*1222 FILLER_0_14_121
*1223 FILLER_0_14_133
*1224 FILLER_0_14_139
*1225 FILLER_0_14_141
*1226 FILLER_0_14_15
*1227 FILLER_0_14_153
*1228 FILLER_0_14_165
*1229 FILLER_0_14_177
*1230 FILLER_0_14_189
*1231 FILLER_0_14_195
*1232 FILLER_0_14_197
*1233 FILLER_0_14_209
*1234 FILLER_0_14_221
*1235 FILLER_0_14_233
*1236 FILLER_0_14_245
*1237 FILLER_0_14_251
*1238 FILLER_0_14_253
*1239 FILLER_0_14_265
*1240 FILLER_0_14_27
*1241 FILLER_0_14_277
*1242 FILLER_0_14_289
*1243 FILLER_0_14_29
*1244 FILLER_0_14_3
*1245 FILLER_0_14_301
*1246 FILLER_0_14_307
*1247 FILLER_0_14_309
*1248 FILLER_0_14_321
*1249 FILLER_0_14_333
*1250 FILLER_0_14_345
*1251 FILLER_0_14_357
*1252 FILLER_0_14_363
*1253 FILLER_0_14_365
*1254 FILLER_0_14_377
*1255 FILLER_0_14_389
*1256 FILLER_0_14_401
*1257 FILLER_0_14_41
*1258 FILLER_0_14_413
*1259 FILLER_0_14_419
*1260 FILLER_0_14_421
*1261 FILLER_0_14_433
*1262 FILLER_0_14_445
*1263 FILLER_0_14_457
*1264 FILLER_0_14_469
*1265 FILLER_0_14_53
*1266 FILLER_0_14_65
*1267 FILLER_0_14_77
*1268 FILLER_0_14_83
*1269 FILLER_0_14_85
*1270 FILLER_0_14_97
*1271 FILLER_0_15_105
*1272 FILLER_0_15_111
*1273 FILLER_0_15_113
*1274 FILLER_0_15_125
*1275 FILLER_0_15_137
*1276 FILLER_0_15_149
*1277 FILLER_0_15_15
*1278 FILLER_0_15_161
*1279 FILLER_0_15_167
*1280 FILLER_0_15_169
*1281 FILLER_0_15_181
*1282 FILLER_0_15_193
*1283 FILLER_0_15_205
*1284 FILLER_0_15_217
*1285 FILLER_0_15_223
*1286 FILLER_0_15_225
*1287 FILLER_0_15_237
*1288 FILLER_0_15_249
*1289 FILLER_0_15_261
*1290 FILLER_0_15_27
*1291 FILLER_0_15_273
*1292 FILLER_0_15_279
*1293 FILLER_0_15_281
*1294 FILLER_0_15_293
*1295 FILLER_0_15_3
*1296 FILLER_0_15_305
*1297 FILLER_0_15_317
*1298 FILLER_0_15_329
*1299 FILLER_0_15_335
*1300 FILLER_0_15_337
*1301 FILLER_0_15_349
*1302 FILLER_0_15_361
*1303 FILLER_0_15_373
*1304 FILLER_0_15_385
*1305 FILLER_0_15_39
*1306 FILLER_0_15_391
*1307 FILLER_0_15_393
*1308 FILLER_0_15_405
*1309 FILLER_0_15_417
*1310 FILLER_0_15_429
*1311 FILLER_0_15_441
*1312 FILLER_0_15_447
*1313 FILLER_0_15_449
*1314 FILLER_0_15_461
*1315 FILLER_0_15_51
*1316 FILLER_0_15_55
*1317 FILLER_0_15_57
*1318 FILLER_0_15_69
*1319 FILLER_0_15_81
*1320 FILLER_0_15_93
*1321 FILLER_0_16_109
*1322 FILLER_0_16_121
*1323 FILLER_0_16_133
*1324 FILLER_0_16_139
*1325 FILLER_0_16_141
*1326 FILLER_0_16_15
*1327 FILLER_0_16_153
*1328 FILLER_0_16_165
*1329 FILLER_0_16_177
*1330 FILLER_0_16_189
*1331 FILLER_0_16_195
*1332 FILLER_0_16_197
*1333 FILLER_0_16_209
*1334 FILLER_0_16_221
*1335 FILLER_0_16_233
*1336 FILLER_0_16_245
*1337 FILLER_0_16_251
*1338 FILLER_0_16_253
*1339 FILLER_0_16_265
*1340 FILLER_0_16_27
*1341 FILLER_0_16_277
*1342 FILLER_0_16_289
*1343 FILLER_0_16_29
*1344 FILLER_0_16_3
*1345 FILLER_0_16_301
*1346 FILLER_0_16_307
*1347 FILLER_0_16_309
*1348 FILLER_0_16_321
*1349 FILLER_0_16_333
*1350 FILLER_0_16_345
*1351 FILLER_0_16_357
*1352 FILLER_0_16_363
*1353 FILLER_0_16_365
*1354 FILLER_0_16_377
*1355 FILLER_0_16_389
*1356 FILLER_0_16_401
*1357 FILLER_0_16_41
*1358 FILLER_0_16_413
*1359 FILLER_0_16_419
*1360 FILLER_0_16_421
*1361 FILLER_0_16_433
*1362 FILLER_0_16_445
*1363 FILLER_0_16_457
*1364 FILLER_0_16_469
*1365 FILLER_0_16_53
*1366 FILLER_0_16_65
*1367 FILLER_0_16_77
*1368 FILLER_0_16_83
*1369 FILLER_0_16_85
*1370 FILLER_0_16_97
*1371 FILLER_0_17_105
*1372 FILLER_0_17_111
*1373 FILLER_0_17_113
*1374 FILLER_0_17_125
*1375 FILLER_0_17_137
*1376 FILLER_0_17_149
*1377 FILLER_0_17_161
*1378 FILLER_0_17_167
*1379 FILLER_0_17_169
*1380 FILLER_0_17_18
*1381 FILLER_0_17_181
*1382 FILLER_0_17_193
*1383 FILLER_0_17_205
*1384 FILLER_0_17_217
*1385 FILLER_0_17_223
*1386 FILLER_0_17_225
*1387 FILLER_0_17_237
*1388 FILLER_0_17_249
*1389 FILLER_0_17_261
*1390 FILLER_0_17_273
*1391 FILLER_0_17_279
*1392 FILLER_0_17_281
*1393 FILLER_0_17_293
*1394 FILLER_0_17_30
*1395 FILLER_0_17_305
*1396 FILLER_0_17_317
*1397 FILLER_0_17_329
*1398 FILLER_0_17_335
*1399 FILLER_0_17_337
*1400 FILLER_0_17_349
*1401 FILLER_0_17_361
*1402 FILLER_0_17_373
*1403 FILLER_0_17_385
*1404 FILLER_0_17_391
*1405 FILLER_0_17_393
*1406 FILLER_0_17_405
*1407 FILLER_0_17_417
*1408 FILLER_0_17_42
*1409 FILLER_0_17_429
*1410 FILLER_0_17_441
*1411 FILLER_0_17_447
*1412 FILLER_0_17_449
*1413 FILLER_0_17_461
*1414 FILLER_0_17_54
*1415 FILLER_0_17_57
*1416 FILLER_0_17_6
*1417 FILLER_0_17_69
*1418 FILLER_0_17_81
*1419 FILLER_0_17_93
*1420 FILLER_0_18_104
*1421 FILLER_0_18_116
*1422 FILLER_0_18_120
*1423 FILLER_0_18_129
*1424 FILLER_0_18_137
*1425 FILLER_0_18_141
*1426 FILLER_0_18_146
*1427 FILLER_0_18_155
*1428 FILLER_0_18_167
*1429 FILLER_0_18_173
*1430 FILLER_0_18_182
*1431 FILLER_0_18_194
*1432 FILLER_0_18_205
*1433 FILLER_0_18_21
*1434 FILLER_0_18_217
*1435 FILLER_0_18_229
*1436 FILLER_0_18_241
*1437 FILLER_0_18_249
*1438 FILLER_0_18_253
*1439 FILLER_0_18_265
*1440 FILLER_0_18_27
*1441 FILLER_0_18_277
*1442 FILLER_0_18_289
*1443 FILLER_0_18_29
*1444 FILLER_0_18_301
*1445 FILLER_0_18_307
*1446 FILLER_0_18_309
*1447 FILLER_0_18_321
*1448 FILLER_0_18_333
*1449 FILLER_0_18_345
*1450 FILLER_0_18_357
*1451 FILLER_0_18_363
*1452 FILLER_0_18_365
*1453 FILLER_0_18_37
*1454 FILLER_0_18_377
*1455 FILLER_0_18_389
*1456 FILLER_0_18_401
*1457 FILLER_0_18_413
*1458 FILLER_0_18_419
*1459 FILLER_0_18_421
*1460 FILLER_0_18_433
*1461 FILLER_0_18_445
*1462 FILLER_0_18_457
*1463 FILLER_0_18_469
*1464 FILLER_0_18_56
*1465 FILLER_0_18_68
*1466 FILLER_0_18_83
*1467 FILLER_0_18_85
*1468 FILLER_0_18_9
*1469 FILLER_0_18_97
*1470 FILLER_0_19_111
*1471 FILLER_0_19_135
*1472 FILLER_0_19_158
*1473 FILLER_0_19_166
*1474 FILLER_0_19_169
*1475 FILLER_0_19_173
*1476 FILLER_0_19_182
*1477 FILLER_0_19_207
*1478 FILLER_0_19_219
*1479 FILLER_0_19_223
*1480 FILLER_0_19_225
*1481 FILLER_0_19_237
*1482 FILLER_0_19_249
*1483 FILLER_0_19_26
*1484 FILLER_0_19_261
*1485 FILLER_0_19_272
*1486 FILLER_0_19_281
*1487 FILLER_0_19_293
*1488 FILLER_0_19_3
*1489 FILLER_0_19_30
*1490 FILLER_0_19_305
*1491 FILLER_0_19_317
*1492 FILLER_0_19_331
*1493 FILLER_0_19_335
*1494 FILLER_0_19_337
*1495 FILLER_0_19_349
*1496 FILLER_0_19_361
*1497 FILLER_0_19_373
*1498 FILLER_0_19_385
*1499 FILLER_0_19_391
*1500 FILLER_0_19_393
*1501 FILLER_0_19_405
*1502 FILLER_0_19_417
*1503 FILLER_0_19_429
*1504 FILLER_0_19_441
*1505 FILLER_0_19_447
*1506 FILLER_0_19_449
*1507 FILLER_0_19_461
*1508 FILLER_0_19_55
*1509 FILLER_0_19_64
*1510 FILLER_0_19_86
*1511 FILLER_0_19_94
*1512 FILLER_0_1_105
*1513 FILLER_0_1_111
*1514 FILLER_0_1_113
*1515 FILLER_0_1_125
*1516 FILLER_0_1_137
*1517 FILLER_0_1_149
*1518 FILLER_0_1_15
*1519 FILLER_0_1_161
*1520 FILLER_0_1_167
*1521 FILLER_0_1_169
*1522 FILLER_0_1_181
*1523 FILLER_0_1_193
*1524 FILLER_0_1_205
*1525 FILLER_0_1_217
*1526 FILLER_0_1_223
*1527 FILLER_0_1_225
*1528 FILLER_0_1_237
*1529 FILLER_0_1_249
*1530 FILLER_0_1_261
*1531 FILLER_0_1_27
*1532 FILLER_0_1_273
*1533 FILLER_0_1_279
*1534 FILLER_0_1_281
*1535 FILLER_0_1_293
*1536 FILLER_0_1_3
*1537 FILLER_0_1_305
*1538 FILLER_0_1_317
*1539 FILLER_0_1_329
*1540 FILLER_0_1_335
*1541 FILLER_0_1_337
*1542 FILLER_0_1_349
*1543 FILLER_0_1_361
*1544 FILLER_0_1_373
*1545 FILLER_0_1_385
*1546 FILLER_0_1_39
*1547 FILLER_0_1_391
*1548 FILLER_0_1_393
*1549 FILLER_0_1_405
*1550 FILLER_0_1_417
*1551 FILLER_0_1_429
*1552 FILLER_0_1_441
*1553 FILLER_0_1_447
*1554 FILLER_0_1_449
*1555 FILLER_0_1_461
*1556 FILLER_0_1_51
*1557 FILLER_0_1_55
*1558 FILLER_0_1_57
*1559 FILLER_0_1_69
*1560 FILLER_0_1_81
*1561 FILLER_0_1_93
*1562 FILLER_0_20_139
*1563 FILLER_0_20_141
*1564 FILLER_0_20_145
*1565 FILLER_0_20_154
*1566 FILLER_0_20_166
*1567 FILLER_0_20_170
*1568 FILLER_0_20_179
*1569 FILLER_0_20_191
*1570 FILLER_0_20_195
*1571 FILLER_0_20_197
*1572 FILLER_0_20_209
*1573 FILLER_0_20_221
*1574 FILLER_0_20_227
*1575 FILLER_0_20_233
*1576 FILLER_0_20_245
*1577 FILLER_0_20_251
*1578 FILLER_0_20_253
*1579 FILLER_0_20_261
*1580 FILLER_0_20_268
*1581 FILLER_0_20_27
*1582 FILLER_0_20_276
*1583 FILLER_0_20_284
*1584 FILLER_0_20_3
*1585 FILLER_0_20_307
*1586 FILLER_0_20_309
*1587 FILLER_0_20_321
*1588 FILLER_0_20_327
*1589 FILLER_0_20_333
*1590 FILLER_0_20_345
*1591 FILLER_0_20_357
*1592 FILLER_0_20_363
*1593 FILLER_0_20_365
*1594 FILLER_0_20_377
*1595 FILLER_0_20_389
*1596 FILLER_0_20_401
*1597 FILLER_0_20_413
*1598 FILLER_0_20_419
*1599 FILLER_0_20_421
*1600 FILLER_0_20_433
*1601 FILLER_0_20_445
*1602 FILLER_0_20_457
*1603 FILLER_0_20_469
*1604 FILLER_0_20_85
*1605 FILLER_0_20_94
*1606 FILLER_0_21_104
*1607 FILLER_0_21_110
*1608 FILLER_0_21_121
*1609 FILLER_0_21_133
*1610 FILLER_0_21_166
*1611 FILLER_0_21_169
*1612 FILLER_0_21_176
*1613 FILLER_0_21_184
*1614 FILLER_0_21_190
*1615 FILLER_0_21_199
*1616 FILLER_0_21_211
*1617 FILLER_0_21_220
*1618 FILLER_0_21_230
*1619 FILLER_0_21_239
*1620 FILLER_0_21_24
*1621 FILLER_0_21_251
*1622 FILLER_0_21_263
*1623 FILLER_0_21_297
*1624 FILLER_0_21_304
*1625 FILLER_0_21_316
*1626 FILLER_0_21_32
*1627 FILLER_0_21_328
*1628 FILLER_0_21_342
*1629 FILLER_0_21_354
*1630 FILLER_0_21_366
*1631 FILLER_0_21_378
*1632 FILLER_0_21_390
*1633 FILLER_0_21_393
*1634 FILLER_0_21_405
*1635 FILLER_0_21_417
*1636 FILLER_0_21_429
*1637 FILLER_0_21_441
*1638 FILLER_0_21_447
*1639 FILLER_0_21_449
*1640 FILLER_0_21_461
*1641 FILLER_0_21_53
*1642 FILLER_0_21_57
*1643 FILLER_0_21_69
*1644 FILLER_0_21_91
*1645 FILLER_0_21_99
*1646 FILLER_0_22_10
*1647 FILLER_0_22_108
*1648 FILLER_0_22_120
*1649 FILLER_0_22_132
*1650 FILLER_0_22_149
*1651 FILLER_0_22_15
*1652 FILLER_0_22_160
*1653 FILLER_0_22_169
*1654 FILLER_0_22_181
*1655 FILLER_0_22_193
*1656 FILLER_0_22_197
*1657 FILLER_0_22_210
*1658 FILLER_0_22_218
*1659 FILLER_0_22_228
*1660 FILLER_0_22_238
*1661 FILLER_0_22_250
*1662 FILLER_0_22_253
*1663 FILLER_0_22_265
*1664 FILLER_0_22_27
*1665 FILLER_0_22_277
*1666 FILLER_0_22_289
*1667 FILLER_0_22_29
*1668 FILLER_0_22_301
*1669 FILLER_0_22_307
*1670 FILLER_0_22_309
*1671 FILLER_0_22_321
*1672 FILLER_0_22_327
*1673 FILLER_0_22_339
*1674 FILLER_0_22_351
*1675 FILLER_0_22_363
*1676 FILLER_0_22_365
*1677 FILLER_0_22_377
*1678 FILLER_0_22_389
*1679 FILLER_0_22_401
*1680 FILLER_0_22_41
*1681 FILLER_0_22_413
*1682 FILLER_0_22_419
*1683 FILLER_0_22_421
*1684 FILLER_0_22_433
*1685 FILLER_0_22_445
*1686 FILLER_0_22_457
*1687 FILLER_0_22_46
*1688 FILLER_0_22_6
*1689 FILLER_0_22_65
*1690 FILLER_0_22_96
*1691 FILLER_0_23_113
*1692 FILLER_0_23_125
*1693 FILLER_0_23_137
*1694 FILLER_0_23_145
*1695 FILLER_0_23_155
*1696 FILLER_0_23_167
*1697 FILLER_0_23_169
*1698 FILLER_0_23_181
*1699 FILLER_0_23_189
*1700 FILLER_0_23_199
*1701 FILLER_0_23_211
*1702 FILLER_0_23_223
*1703 FILLER_0_23_225
*1704 FILLER_0_23_237
*1705 FILLER_0_23_245
*1706 FILLER_0_23_25
*1707 FILLER_0_23_253
*1708 FILLER_0_23_265
*1709 FILLER_0_23_271
*1710 FILLER_0_23_278
*1711 FILLER_0_23_286
*1712 FILLER_0_23_292
*1713 FILLER_0_23_3
*1714 FILLER_0_23_304
*1715 FILLER_0_23_316
*1716 FILLER_0_23_337
*1717 FILLER_0_23_349
*1718 FILLER_0_23_358
*1719 FILLER_0_23_37
*1720 FILLER_0_23_370
*1721 FILLER_0_23_382
*1722 FILLER_0_23_390
*1723 FILLER_0_23_393
*1724 FILLER_0_23_413
*1725 FILLER_0_23_425
*1726 FILLER_0_23_437
*1727 FILLER_0_23_445
*1728 FILLER_0_23_457
*1729 FILLER_0_23_469
*1730 FILLER_0_23_49
*1731 FILLER_0_23_70
*1732 FILLER_0_23_76
*1733 FILLER_0_23_95
*1734 FILLER_0_24_122
*1735 FILLER_0_24_132
*1736 FILLER_0_24_148
*1737 FILLER_0_24_159
*1738 FILLER_0_24_169
*1739 FILLER_0_24_177
*1740 FILLER_0_24_197
*1741 FILLER_0_24_209
*1742 FILLER_0_24_221
*1743 FILLER_0_24_229
*1744 FILLER_0_24_236
*1745 FILLER_0_24_244
*1746 FILLER_0_24_253
*1747 FILLER_0_24_261
*1748 FILLER_0_24_268
*1749 FILLER_0_24_276
*1750 FILLER_0_24_283
*1751 FILLER_0_24_289
*1752 FILLER_0_24_29
*1753 FILLER_0_24_296
*1754 FILLER_0_24_314
*1755 FILLER_0_24_326
*1756 FILLER_0_24_338
*1757 FILLER_0_24_363
*1758 FILLER_0_24_371
*1759 FILLER_0_24_407
*1760 FILLER_0_24_41
*1761 FILLER_0_24_419
*1762 FILLER_0_24_421
*1763 FILLER_0_24_429
*1764 FILLER_0_24_455
*1765 FILLER_0_24_467
*1766 FILLER_0_24_6
*1767 FILLER_0_24_73
*1768 FILLER_0_24_83
*1769 FILLER_0_25_107
*1770 FILLER_0_25_111
*1771 FILLER_0_25_113
*1772 FILLER_0_25_128
*1773 FILLER_0_25_135
*1774 FILLER_0_25_147
*1775 FILLER_0_25_15
*1776 FILLER_0_25_151
*1777 FILLER_0_25_156
*1778 FILLER_0_25_166
*1779 FILLER_0_25_169
*1780 FILLER_0_25_179
*1781 FILLER_0_25_187
*1782 FILLER_0_25_196
*1783 FILLER_0_25_204
*1784 FILLER_0_25_21
*1785 FILLER_0_25_212
*1786 FILLER_0_25_225
*1787 FILLER_0_25_241
*1788 FILLER_0_25_253
*1789 FILLER_0_25_259
*1790 FILLER_0_25_265
*1791 FILLER_0_25_273
*1792 FILLER_0_25_279
*1793 FILLER_0_25_281
*1794 FILLER_0_25_293
*1795 FILLER_0_25_301
*1796 FILLER_0_25_314
*1797 FILLER_0_25_326
*1798 FILLER_0_25_334
*1799 FILLER_0_25_337
*1800 FILLER_0_25_349