*SPEF "ieee 1481-1999"
*DESIGN "cust_rom"
*DATE "08:49:14 Tuesday October 01, 2024"
*VENDOR "The OpenROAD Project"
*PROGRAM "OpenROAD"
*VERSION "b16bda7e82721d10566ff7e2b68f1ff0be9f9e38"
*DESIGN_FLOW "NAME_SCOPE LOCAL" "PIN_CAP NONE"
*DIVIDER /
*DELIMITER :
*BUS_DELIMITER []
*T_UNIT 1 NS
*C_UNIT 1 PF
*R_UNIT 1 OHM
*L_UNIT 1 HENRY

*NAME_MAP
*3 addr0[0]
*4 addr0[1]
*5 addr0[2]
*6 addr0[3]
*7 addr0[4]
*8 addr0[5]
*9 addr0[6]
*10 addr0[7]
*11 clk0
*12 cs0
*13 dout0[0]
*14 dout0[10]
*15 dout0[11]
*16 dout0[12]
*17 dout0[13]
*18 dout0[14]
*19 dout0[15]
*20 dout0[16]
*21 dout0[17]
*22 dout0[18]
*23 dout0[19]
*24 dout0[1]
*25 dout0[20]
*26 dout0[21]
*27 dout0[22]
*28 dout0[23]
*29 dout0[24]
*30 dout0[25]
*31 dout0[26]
*32 dout0[27]
*33 dout0[28]
*34 dout0[29]
*35 dout0[2]
*36 dout0[30]
*37 dout0[31]
*38 dout0[3]
*39 dout0[4]
*40 dout0[5]
*41 dout0[6]
*42 dout0[7]
*43 dout0[8]
*44 dout0[9]
*45 _0000_
*46 _0001_
*47 _0002_
*48 _0003_
*49 _0004_
*50 _0005_
*51 _0006_
*52 _0007_
*53 _0008_
*54 _0009_
*55 _0010_
*56 _0011_
*57 _0012_
*58 _0013_
*59 _0014_
*60 _0015_
*61 _0016_
*62 _0017_
*63 _0018_
*64 _0019_
*65 _0020_
*66 _0021_
*67 _0022_
*68 _0023_
*69 _0024_
*70 _0025_
*71 _0026_
*72 _0027_
*73 _0028_
*74 _0029_
*75 _0030_
*76 _0031_
*77 _0032_
*78 _0033_
*79 _0034_
*80 _0035_
*81 _0036_
*82 _0037_
*83 _0038_
*84 _0039_
*85 _0040_
*86 _0041_
*87 _0042_
*88 _0043_
*89 _0044_
*90 _0045_
*91 _0046_
*92 _0047_
*93 _0048_
*94 _0049_
*95 _0050_
*96 _0051_
*97 _0052_
*98 _0053_
*99 _0054_
*100 _0055_
*101 _0056_
*102 _0057_
*103 _0058_
*104 _0059_
*105 _0060_
*106 _0061_
*107 _0062_
*108 _0063_
*109 _0064_
*110 _0065_
*111 _0066_
*112 _0067_
*113 _0068_
*114 _0069_
*115 _0070_
*116 _0071_
*117 _0072_
*118 _0073_
*119 _0074_
*120 _0075_
*121 _0076_
*122 _0077_
*123 _0078_
*124 _0079_
*125 _0080_
*126 _0081_
*127 _0082_
*128 _0083_
*129 _0084_
*130 _0085_
*131 _0086_
*132 _0087_
*133 _0088_
*134 _0089_
*135 _0090_
*136 _0091_
*137 _0092_
*138 _0093_
*139 _0094_
*140 _0095_
*141 _0096_
*142 _0097_
*143 _0098_
*144 _0099_
*145 _0100_
*146 _0101_
*147 _0102_
*148 _0103_
*149 _0104_
*150 _0105_
*151 _0106_
*152 _0107_
*153 _0108_
*154 _0109_
*155 _0110_
*156 _0111_
*157 _0112_
*158 _0113_
*159 _0114_
*160 _0115_
*161 _0116_
*162 _0117_
*163 _0118_
*164 _0119_
*165 _0120_
*166 _0121_
*167 _0122_
*168 _0123_
*169 _0124_
*170 _0125_
*171 _0126_
*172 _0127_
*173 _0128_
*174 _0129_
*175 _0130_
*176 _0131_
*177 _0132_
*178 _0133_
*179 _0134_
*180 _0135_
*181 _0136_
*182 _0137_
*183 _0138_
*184 _0139_
*185 _0140_
*186 _0141_
*187 _0142_
*188 _0143_
*189 _0144_
*190 _0145_
*191 _0146_
*192 _0147_
*193 _0148_
*194 _0149_
*195 _0150_
*196 _0151_
*197 _0152_
*198 _0153_
*199 _0154_
*200 _0155_
*201 _0156_
*202 _0157_
*203 _0158_
*204 _0159_
*205 _0160_
*206 _0161_
*207 _0162_
*208 _0163_
*209 _0164_
*210 _0165_
*211 _0166_
*212 _0167_
*213 _0168_
*214 _0169_
*215 _0170_
*216 _0171_
*217 _0172_
*218 _0173_
*219 _0174_
*220 _0175_
*221 _0176_
*222 _0177_
*223 _0178_
*224 _0179_
*225 _0180_
*226 _0181_
*227 _0182_
*228 _0183_
*229 _0184_
*230 _0185_
*231 _0186_
*232 _0187_
*233 _0188_
*234 _0189_
*235 _0190_
*236 _0191_
*237 _0192_
*238 _0193_
*239 _0194_
*240 _0195_
*241 _0196_
*242 _0197_
*243 _0198_
*244 _0199_
*245 _0200_
*246 _0201_
*247 _0202_
*248 _0203_
*249 _0204_
*250 _0205_
*251 _0206_
*252 _0207_
*253 _0208_
*254 _0209_
*255 _0210_
*256 _0211_
*257 _0212_
*258 _0213_
*259 _0214_
*260 _0215_
*261 _0216_
*262 _0217_
*263 _0218_
*264 _0219_
*265 _0220_
*266 _0221_
*267 _0222_
*268 _0223_
*269 _0224_
*270 _0225_
*271 _0226_
*272 _0227_
*273 _0228_
*274 _0229_
*275 _0230_
*276 _0231_
*277 _0232_
*278 _0233_
*279 _0234_
*280 _0235_
*281 _0236_
*282 _0237_
*283 _0238_
*284 _0239_
*285 _0240_
*286 _0241_
*287 _0242_
*288 _0243_
*289 _0244_
*290 _0245_
*291 _0246_
*292 _0247_
*293 _0248_
*294 _0249_
*295 _0250_
*296 _0251_
*297 _0252_
*298 _0253_
*299 _0254_
*300 _0255_
*301 _0256_
*302 _0257_
*303 _0258_
*304 _0259_
*305 _0260_
*306 _0261_
*307 _0262_
*308 _0263_
*309 _0264_
*310 _0265_
*311 _0266_
*312 _0267_
*313 _0268_
*314 _0269_
*315 _0270_
*316 _0271_
*317 _0272_
*318 _0273_
*319 _0274_
*320 _0275_
*321 _0276_
*322 _0277_
*323 _0278_
*324 _0279_
*325 _0280_
*326 _0281_
*327 _0282_
*328 _0283_
*329 _0284_
*330 _0285_
*331 _0286_
*332 _0287_
*333 _0288_
*334 _0289_
*335 _0290_
*336 _0291_
*337 _0292_
*338 _0293_
*339 _0294_
*340 _0295_
*341 _0296_
*342 _0297_
*343 _0298_
*344 _0299_
*345 _0300_
*346 _0301_
*347 _0302_
*348 _0303_
*349 _0304_
*350 _0305_
*351 _0306_
*352 _0307_
*353 _0308_
*354 _0309_
*355 _0310_
*356 _0311_
*357 _0312_
*358 _0313_
*359 _0314_
*360 _0315_
*361 _0316_
*362 _0317_
*363 _0318_
*364 _0319_
*365 _0320_
*366 _0321_
*367 _0322_
*368 _0323_
*369 _0324_
*370 _0325_
*371 _0326_
*372 _0327_
*373 _0328_
*374 _0329_
*375 _0330_
*376 _0331_
*377 _0332_
*378 _0333_
*379 _0334_
*380 _0335_
*381 _0336_
*382 _0337_
*383 _0338_
*384 _0339_
*385 _0340_
*386 _0341_
*387 _0342_
*388 _0343_
*389 _0344_
*390 _0345_
*391 _0346_
*392 _0347_
*393 _0348_
*394 _0349_
*395 _0350_
*396 _0351_
*397 _0352_
*398 _0353_
*399 _0354_
*400 _0355_
*401 _0356_
*402 _0357_
*403 _0358_
*404 _0359_
*405 _0360_
*406 _0361_
*407 _0362_
*408 _0363_
*409 _0364_
*410 _0365_
*411 _0366_
*412 _0367_
*413 _0368_
*414 _0369_
*415 _0370_
*416 _0371_
*417 _0372_
*418 _0373_
*419 _0374_
*420 _0375_
*421 _0376_
*422 _0377_
*423 _0378_
*424 _0379_
*425 _0380_
*426 _0381_
*427 _0382_
*428 _0383_
*429 _0384_
*430 _0385_
*431 _0386_
*432 _0387_
*433 _0388_
*434 _0389_
*435 _0390_
*436 _0391_
*437 _0392_
*438 _0393_
*439 _0394_
*440 _0395_
*441 _0396_
*442 _0397_
*443 _0398_
*444 _0399_
*445 _0400_
*446 _0401_
*447 _0402_
*448 _0403_
*449 _0404_
*450 _0405_
*451 _0406_
*452 _0407_
*453 _0408_
*454 _0409_
*455 _0410_
*456 _0411_
*457 _0412_
*458 _0413_
*459 _0414_
*460 _0415_
*461 _0416_
*462 _0417_
*463 _0418_
*464 _0419_
*465 _0420_
*466 _0421_
*467 _0422_
*468 _0423_
*469 _0424_
*470 _0425_
*471 _0426_
*472 _0427_
*473 _0428_
*474 _0429_
*475 _0430_
*476 _0431_
*477 _0432_
*478 _0433_
*479 _0434_
*480 _0435_
*481 _0436_
*482 _0437_
*483 _0438_
*484 _0439_
*485 _0440_
*486 _0441_
*487 _0442_
*488 _0443_
*489 _0444_
*490 _0445_
*491 _0446_
*492 _0447_
*493 _0448_
*494 _0449_
*495 _0450_
*496 _0451_
*497 _0452_
*498 _0453_
*499 _0454_
*500 _0455_
*501 _0456_
*502 _0457_
*503 _0458_
*504 _0459_
*505 _0460_
*506 _0461_
*507 _0462_
*508 _0463_
*509 _0464_
*510 _0465_
*511 _0466_
*512 _0467_
*513 _0468_
*514 _0469_
*515 _0470_
*516 _0471_
*517 _0472_
*518 _0473_
*519 _0474_
*520 _0475_
*521 _0476_
*522 _0477_
*523 _0478_
*524 _0479_
*525 _0480_
*526 _0481_
*527 _0482_
*528 _0483_
*529 _0484_
*530 _0485_
*531 _0486_
*532 _0487_
*533 _0488_
*534 _0489_
*535 _0490_
*536 _0491_
*537 _0492_
*538 _0493_
*539 _0494_
*540 _0495_
*541 _0496_
*542 _0497_
*543 _0498_
*544 _0499_
*545 _0500_
*546 _0501_
*547 _0502_
*548 _0503_
*549 _0504_
*550 _0505_
*551 _0506_
*552 _0507_
*553 _0508_
*554 _0509_
*555 _0510_
*556 _0511_
*557 _0512_
*558 _0513_
*559 _0514_
*560 _0515_
*561 _0516_
*562 _0517_
*563 _0518_
*564 _0519_
*565 _0520_
*566 _0521_
*567 _0522_
*568 _0523_
*569 _0524_
*570 _0525_
*571 _0526_
*572 _0527_
*573 _0528_
*574 _0529_
*575 _0530_
*576 _0531_
*577 _0532_
*578 _0533_
*579 _0534_
*580 _0535_
*581 _0536_
*582 _0537_
*583 _0538_
*584 _0539_
*585 _0540_
*586 _0541_
*587 _0542_
*588 _0543_
*589 _0544_
*590 _0545_
*591 _0546_
*592 _0547_
*593 _0548_
*594 _0549_
*595 _0550_
*596 _0551_
*597 _0552_
*598 _0553_
*599 _0554_
*600 _0555_
*601 _0556_
*602 _0557_
*603 _0558_
*604 _0559_
*605 _0560_
*606 _0561_
*607 _0562_
*608 _0563_
*609 _0564_
*610 _0565_
*611 _0566_
*612 _0567_
*613 _0568_
*614 _0569_
*615 _0570_
*616 _0571_
*617 _0572_
*618 _0573_
*619 _0574_
*620 _0575_
*621 _0576_
*622 _0577_
*623 _0578_
*624 _0579_
*625 _0580_
*626 _0581_
*627 _0582_
*628 _0583_
*629 _0584_
*630 _0585_
*631 _0586_
*632 _0587_
*633 _0588_
*634 _0589_
*635 _0590_
*636 _0591_
*637 _0592_
*638 _0593_
*639 _0594_
*640 _0595_
*641 _0596_
*642 _0597_
*643 _0598_
*644 _0599_
*645 _0600_
*646 _0601_
*647 _0602_
*648 _0603_
*649 _0604_
*650 _0605_
*651 _0606_
*652 _0607_
*653 _0608_
*654 _0609_
*655 _0610_
*656 _0611_
*657 _0612_
*658 _0613_
*659 _0614_
*660 _0615_
*661 _0616_
*662 _0617_
*663 _0618_
*664 _0619_
*665 _0620_
*666 _0621_
*667 _0622_
*668 _0623_
*669 _0624_
*670 _0625_
*671 _0626_
*672 _0627_
*673 _0628_
*674 _0629_
*675 _0630_
*676 _0631_
*677 _0632_
*678 _0633_
*679 _0634_
*680 _0635_
*681 _0636_
*682 _0637_
*683 _0638_
*684 _0639_
*685 _0640_
*686 _0641_
*687 _0642_
*688 _0643_
*689 _0644_
*690 _0645_
*691 _0646_
*692 _0647_
*693 _0648_
*694 _0649_
*695 _0650_
*696 _0651_
*697 _0652_
*698 _0653_
*699 _0654_
*700 _0655_
*701 _0656_
*702 _0657_
*703 _0658_
*704 _0659_
*705 _0660_
*706 _0661_
*707 _0662_
*708 _0663_
*709 _0664_
*710 _0665_
*711 _0666_
*712 _0667_
*713 _0668_
*714 _0669_
*715 _0670_
*716 _0671_
*717 _0672_
*718 _0673_
*719 _0674_
*720 _0675_
*721 _0676_
*722 _0677_
*723 _0678_
*724 _0679_
*725 _0680_
*726 _0681_
*727 _0682_
*728 _0683_
*729 _0684_
*730 _0685_
*731 _0686_
*732 _0687_
*733 _0688_
*734 _0689_
*735 _0690_
*736 _0691_
*737 _0692_
*738 _0693_
*739 _0694_
*740 _0695_
*741 _0696_
*742 _0697_
*743 _0698_
*744 _0699_
*745 _0700_
*746 _0701_
*747 _0702_
*748 _0703_
*749 _0704_
*750 _0705_
*751 _0706_
*752 _0707_
*753 _0708_
*754 _0709_
*755 _0710_
*756 _0711_
*757 _0712_
*758 _0713_
*759 _0714_
*760 _0715_
*761 _0716_
*762 _0717_
*763 _0718_
*764 _0719_
*765 _0720_
*766 _0721_
*767 _0722_
*768 _0723_
*769 _0724_
*770 _0725_
*771 _0726_
*772 _0727_
*773 _0728_
*774 _0729_
*775 _0730_
*776 _0731_
*777 _0732_
*778 _0733_
*779 _0734_
*780 _0735_
*781 _0736_
*782 _0737_
*783 _0738_
*784 _0739_
*785 _0740_
*786 _0741_
*787 _0742_
*788 _0743_
*789 _0744_
*790 _0745_
*791 _0746_
*792 _0747_
*793 _0748_
*794 _0749_
*795 _0750_
*796 _0751_
*797 _0752_
*798 _0753_
*799 _0754_
*800 _0755_
*801 _0756_
*802 _0757_
*803 _0758_
*804 _0759_
*805 _0760_
*806 _0761_
*807 _0762_
*808 _0763_
*809 _0764_
*810 _0765_
*811 _0766_
*812 _0767_
*813 _0768_
*814 _0769_
*815 _0770_
*816 _0771_
*817 _0772_
*818 _0773_
*819 _0774_
*820 _0775_
*821 _0776_
*822 _0777_
*823 _0778_
*824 _0779_
*825 _0780_
*826 _0781_
*827 _0782_
*828 _0783_
*829 _0784_
*830 _0785_
*831 _0786_
*832 _0787_
*833 _0788_
*834 _0789_
*835 _0790_
*836 _0791_
*837 _0792_
*838 _0793_
*839 _0794_
*840 _0795_
*841 _0796_
*842 _0797_
*843 _0798_
*844 _0799_
*845 _0800_
*846 _0801_
*847 _0802_
*848 _0803_
*849 _0804_
*850 _0805_
*851 _0806_
*852 _0807_
*853 _0808_
*854 addr0_reg\[0\]
*855 addr0_reg\[1\]
*856 addr0_reg\[2\]
*857 addr0_reg\[3\]
*858 addr0_reg\[4\]
*859 addr0_reg\[5\]
*860 addr0_reg\[6\]
*861 addr0_reg\[7\]
*862 clknet_0_clk0
*863 clknet_2_0__leaf_clk0
*864 clknet_2_1__leaf_clk0
*865 clknet_2_2__leaf_clk0
*866 clknet_2_3__leaf_clk0
*867 net1
*868 net10
*869 net100
*870 net101
*871 net102
*872 net103
*873 net104
*874 net105
*875 net106
*876 net107
*877 net108
*878 net109
*879 net11
*880 net110
*881 net111
*882 net112
*883 net113
*884 net114
*885 net115
*886 net116
*887 net117
*888 net118
*889 net119
*890 net12
*891 net120
*892 net121
*893 net122
*894 net123
*895 net124
*896 net125
*897 net126
*898 net127
*899 net128
*900 net129
*901 net13
*902 net130
*903 net131
*904 net132
*905 net133
*906 net134
*907 net135
*908 net136
*909 net137
*910 net138
*911 net139
*912 net14
*913 net140
*914 net141
*915 net142
*916 net143
*917 net144
*918 net145
*919 net146
*920 net147
*921 net148
*922 net149
*923 net15
*924 net150
*925 net151
*926 net152
*927 net153
*928 net154
*929 net155
*930 net156
*931 net157
*932 net158
*933 net159
*934 net16
*935 net160
*936 net161
*937 net162
*938 net163
*939 net164
*940 net165
*941 net166
*942 net167
*943 net168
*944 net169
*945 net17
*946 net170
*947 net171
*948 net172
*949 net173
*950 net174
*951 net175
*952 net176
*953 net177
*954 net178
*955 net179
*956 net18
*957 net180
*958 net181
*959 net182
*960 net183
*961 net184
*962 net185
*963 net186
*964 net187
*965 net188
*966 net189
*967 net19
*968 net190
*969 net191
*970 net192
*971 net193
*972 net194
*973 net195
*974 net196
*975 net197
*976 net198
*977 net199
*978 net2
*979 net20
*980 net200
*981 net201
*982 net202
*983 net203
*984 net204
*985 net205
*986 net206
*987 net207
*988 net208
*989 net21
*990 net22
*991 net23
*992 net24
*993 net25
*994 net26
*995 net27
*996 net28
*997 net29
*998 net3
*999 net30
*1000 net31
*1001 net32
*1002 net33
*1003 net34
*1004 net35
*1005 net36
*1006 net37
*1007 net38
*1008 net39
*1009 net4
*1010 net40
*1011 net41
*1012 net42
*1013 net43
*1014 net44
*1015 net45
*1016 net46
*1017 net47
*1018 net48
*1019 net49
*1020 net5
*1021 net50
*1022 net51
*1023 net52
*1024 net53
*1025 net54
*1026 net55
*1027 net56
*1028 net57
*1029 net58
*1030 net59
*1031 net6
*1032 net60
*1033 net61
*1034 net62
*1035 net63
*1036 net64
*1037 net65
*1038 net66
*1039 net67
*1040 net68
*1041 net69
*1042 net7
*1043 net70
*1044 net71
*1045 net72
*1046 net73
*1047 net74
*1048 net75
*1049 net76
*1050 net77
*1051 net78
*1052 net79
*1053 net8
*1054 net80
*1055 net81
*1056 net82
*1057 net83
*1058 net84
*1059 net85
*1060 net86
*1061 net87
*1062 net88
*1063 net89
*1064 net9
*1065 net90
*1066 net91
*1067 net92
*1068 net93
*1069 net94
*1070 net95
*1071 net96
*1072 net97
*1073 net98
*1074 net99
*1075 ANTENNA_1
*1076 ANTENNA_2
*1077 ANTENNA_3
*1078 ANTENNA_4
*1079 FILLER_0_0_109
*1080 FILLER_0_0_113
*1081 FILLER_0_0_119
*1082 FILLER_0_0_131
*1083 FILLER_0_0_139
*1084 FILLER_0_0_141
*1085 FILLER_0_0_149
*1086 FILLER_0_0_15
*1087 FILLER_0_0_154
*1088 FILLER_0_0_166
*1089 FILLER_0_0_169
*1090 FILLER_0_0_175
*1091 FILLER_0_0_187
*1092 FILLER_0_0_191
*1093 FILLER_0_0_197
*1094 FILLER_0_0_209
*1095 FILLER_0_0_217
*1096 FILLER_0_0_225
*1097 FILLER_0_0_237
*1098 FILLER_0_0_249
*1099 FILLER_0_0_253
*1100 FILLER_0_0_265
*1101 FILLER_0_0_27
*1102 FILLER_0_0_277
*1103 FILLER_0_0_281
*1104 FILLER_0_0_29
*1105 FILLER_0_0_293
*1106 FILLER_0_0_3
*1107 FILLER_0_0_37
*1108 FILLER_0_0_41
*1109 FILLER_0_0_53
*1110 FILLER_0_0_57
*1111 FILLER_0_0_69
*1112 FILLER_0_0_81
*1113 FILLER_0_0_85
*1114 FILLER_0_0_97
*1115 FILLER_0_10_101
*1116 FILLER_0_10_109
*1117 FILLER_0_10_138
*1118 FILLER_0_10_141
*1119 FILLER_0_10_152
*1120 FILLER_0_10_156
*1121 FILLER_0_10_171
*1122 FILLER_0_10_179
*1123 FILLER_0_10_19
*1124 FILLER_0_10_193
*1125 FILLER_0_10_217
*1126 FILLER_0_10_222
*1127 FILLER_0_10_232
*1128 FILLER_0_10_244
*1129 FILLER_0_10_253
*1130 FILLER_0_10_267
*1131 FILLER_0_10_27
*1132 FILLER_0_10_279
*1133 FILLER_0_10_29
*1134 FILLER_0_10_291
*1135 FILLER_0_10_303
*1136 FILLER_0_10_39
*1137 FILLER_0_10_71
*1138 FILLER_0_10_83
*1139 FILLER_0_11_101
*1140 FILLER_0_11_109
*1141 FILLER_0_11_113
*1142 FILLER_0_11_121
*1143 FILLER_0_11_129
*1144 FILLER_0_11_141
*1145 FILLER_0_11_15
*1146 FILLER_0_11_183
*1147 FILLER_0_11_195
*1148 FILLER_0_11_207
*1149 FILLER_0_11_219
*1150 FILLER_0_11_223
*1151 FILLER_0_11_230
*1152 FILLER_0_11_251
*1153 FILLER_0_11_267
*1154 FILLER_0_11_27
*1155 FILLER_0_11_277
*1156 FILLER_0_11_287
*1157 FILLER_0_11_299
*1158 FILLER_0_11_3
*1159 FILLER_0_11_44
*1160 FILLER_0_11_63
*1161 FILLER_0_11_82
*1162 FILLER_0_11_94
*1163 FILLER_0_12_103
*1164 FILLER_0_12_109
*1165 FILLER_0_12_122
*1166 FILLER_0_12_133
*1167 FILLER_0_12_139
*1168 FILLER_0_12_148
*1169 FILLER_0_12_163
*1170 FILLER_0_12_175
*1171 FILLER_0_12_183
*1172 FILLER_0_12_190
*1173 FILLER_0_12_209
*1174 FILLER_0_12_213
*1175 FILLER_0_12_228
*1176 FILLER_0_12_24
*1177 FILLER_0_12_240
*1178 FILLER_0_12_249
*1179 FILLER_0_12_259
*1180 FILLER_0_12_271
*1181 FILLER_0_12_283
*1182 FILLER_0_12_295
*1183 FILLER_0_12_303
*1184 FILLER_0_12_44
*1185 FILLER_0_12_60
*1186 FILLER_0_12_7
*1187 FILLER_0_12_83
*1188 FILLER_0_12_85
*1189 FILLER_0_12_96
*1190 FILLER_0_13_108
*1191 FILLER_0_13_113
*1192 FILLER_0_13_124
*1193 FILLER_0_13_132
*1194 FILLER_0_13_140
*1195 FILLER_0_13_158
*1196 FILLER_0_13_162
*1197 FILLER_0_13_167
*1198 FILLER_0_13_169
*1199 FILLER_0_13_181
*1200 FILLER_0_13_194
*1201 FILLER_0_13_198
*1202 FILLER_0_13_23
*1203 FILLER_0_13_230
*1204 FILLER_0_13_244
*1205 FILLER_0_13_256
*1206 FILLER_0_13_265
*1207 FILLER_0_13_277
*1208 FILLER_0_13_281
*1209 FILLER_0_13_293
*1210 FILLER_0_13_3
*1211 FILLER_0_13_55
*1212 FILLER_0_13_57
*1213 FILLER_0_13_69
*1214 FILLER_0_13_81
*1215 FILLER_0_13_89
*1216 FILLER_0_13_9
*1217 FILLER_0_13_96
*1218 FILLER_0_14_104
*1219 FILLER_0_14_116
*1220 FILLER_0_14_132
*1221 FILLER_0_14_141
*1222 FILLER_0_14_149
*1223 FILLER_0_14_179
*1224 FILLER_0_14_184
*1225 FILLER_0_14_197
*1226 FILLER_0_14_201
*1227 FILLER_0_14_205
*1228 FILLER_0_14_214
*1229 FILLER_0_14_222
*1230 FILLER_0_14_239
*1231 FILLER_0_14_250
*1232 FILLER_0_14_259
*1233 FILLER_0_14_26
*1234 FILLER_0_14_29
*1235 FILLER_0_14_293
*1236 FILLER_0_14_3
*1237 FILLER_0_14_41
*1238 FILLER_0_14_53
*1239 FILLER_0_14_60
*1240 FILLER_0_14_72
*1241 FILLER_0_14_85
*1242 FILLER_0_14_92
*1243 FILLER_0_15_108
*1244 FILLER_0_15_128
*1245 FILLER_0_15_136
*1246 FILLER_0_15_152
*1247 FILLER_0_15_164
*1248 FILLER_0_15_169
*1249 FILLER_0_15_181
*1250 FILLER_0_15_195
*1251 FILLER_0_15_207
*1252 FILLER_0_15_219
*1253 FILLER_0_15_223
*1254 FILLER_0_15_225
*1255 FILLER_0_15_238
*1256 FILLER_0_15_242
*1257 FILLER_0_15_247
*1258 FILLER_0_15_259
*1259 FILLER_0_15_277
*1260 FILLER_0_15_281
*1261 FILLER_0_15_294
*1262 FILLER_0_15_3
*1263 FILLER_0_15_32
*1264 FILLER_0_15_65
*1265 FILLER_0_15_87
*1266 FILLER_0_16_100
*1267 FILLER_0_16_112
*1268 FILLER_0_16_124
*1269 FILLER_0_16_138
*1270 FILLER_0_16_144
*1271 FILLER_0_16_157
*1272 FILLER_0_16_171
*1273 FILLER_0_16_183
*1274 FILLER_0_16_19
*1275 FILLER_0_16_197
*1276 FILLER_0_16_201
*1277 FILLER_0_16_210
*1278 FILLER_0_16_222
*1279 FILLER_0_16_253
*1280 FILLER_0_16_257
*1281 FILLER_0_16_27
*1282 FILLER_0_16_273
*1283 FILLER_0_16_279
*1284 FILLER_0_16_287
*1285 FILLER_0_16_29
*1286 FILLER_0_16_33
*1287 FILLER_0_16_41
*1288 FILLER_0_16_45
*1289 FILLER_0_16_58
*1290 FILLER_0_16_7
*1291 FILLER_0_16_79
*1292 FILLER_0_16_83
*1293 FILLER_0_16_85
*1294 FILLER_0_17_100
*1295 FILLER_0_17_106
*1296 FILLER_0_17_113
*1297 FILLER_0_17_121
*1298 FILLER_0_17_135
*1299 FILLER_0_17_147
*1300 FILLER_0_17_15
*1301 FILLER_0_17_159
*1302 FILLER_0_17_169
*1303 FILLER_0_17_177
*1304 FILLER_0_17_197
*1305 FILLER_0_17_213
*1306 FILLER_0_17_219
*1307 FILLER_0_17_241
*1308 FILLER_0_17_253
*1309 FILLER_0_17_27
*1310 FILLER_0_17_278
*1311 FILLER_0_17_281
*1312 FILLER_0_17_293
*1313 FILLER_0_17_3
*1314 FILLER_0_17_35
*1315 FILLER_0_17_43
*1316 FILLER_0_17_55
*1317 FILLER_0_17_65
*1318 FILLER_0_17_82
*1319 FILLER_0_18_113
*1320 FILLER_0_18_125
*1321 FILLER_0_18_137
*1322 FILLER_0_18_141
*1323 FILLER_0_18_147
*1324 FILLER_0_18_153
*1325 FILLER_0_18_16
*1326 FILLER_0_18_161
*1327 FILLER_0_18_173
*1328 FILLER_0_18_180
*1329 FILLER_0_18_188
*1330 FILLER_0_18_194
*1331 FILLER_0_18_197
*1332 FILLER_0_18_201
*1333 FILLER_0_18_206
*1334 FILLER_0_18_214
*1335 FILLER_0_18_223
*1336 FILLER_0_18_23
*1337 FILLER_0_18_231
*1338 FILLER_0_18_237
*1339 FILLER_0_18_246
*1340 FILLER_0_18_253
*1341 FILLER_0_18_265
*1342 FILLER_0_18_27
*1343 FILLER_0_18_283
*1344 FILLER_0_18_3
*1345 FILLER_0_18_37
*1346 FILLER_0_18_43
*1347 FILLER_0_18_66
*1348 FILLER_0_18_7
*1349 FILLER_0_18_78
*1350 FILLER_0_18_85
*1351 FILLER_0_18_96
*1352 FILLER_0_19_107
*1353 FILLER_0_19_111
*1354 FILLER_0_19_113
*1355 FILLER_0_19_124
*1356 FILLER_0_19_132
*1357 FILLER_0_19_148
*1358 FILLER_0_19_152
*1359 FILLER_0_19_158
*1360 FILLER_0_19_166
*1361 FILLER_0_19_169
*1362 FILLER_0_19_175
*1363 FILLER_0_19_199
*1364 FILLER_0_19_211
*1365 FILLER_0_19_220
*1366 FILLER_0_19_233
*1367 FILLER_0_19_240
*1368 FILLER_0_19_252
*1369 FILLER_0_19_264
*1370 FILLER_0_19_27
*1371 FILLER_0_19_281
*1372 FILLER_0_19_37
*1373 FILLER_0_19_45
*1374 FILLER_0_19_49
*1375 FILLER_0_19_55
*1376 FILLER_0_19_57
*1377 FILLER_0_19_61
*1378 FILLER_0_19_81
*1379 FILLER_0_19_95
*1380 FILLER_0_1_105
*1381 FILLER_0_1_111
*1382 FILLER_0_1_113
*1383 FILLER_0_1_125
*1384 FILLER_0_1_137
*1385 FILLER_0_1_149
*1386 FILLER_0_1_15
*1387 FILLER_0_1_161
*1388 FILLER_0_1_167
*1389 FILLER_0_1_169
*1390 FILLER_0_1_181
*1391 FILLER_0_1_193
*1392 FILLER_0_1_205
*1393 FILLER_0_1_217
*1394 FILLER_0_1_223
*1395 FILLER_0_1_225
*1396 FILLER_0_1_237
*1397 FILLER_0_1_249
*1398 FILLER_0_1_261
*1399 FILLER_0_1_27
*1400 FILLER_0_1_273
*1401 FILLER_0_1_279
*1402 FILLER_0_1_281
*1403 FILLER_0_1_293
*1404 FILLER_0_1_3
*1405 FILLER_0_1_39
*1406 FILLER_0_1_51
*1407 FILLER_0_1_55
*1408 FILLER_0_1_57
*1409 FILLER_0_1_69
*1410 FILLER_0_1_81
*1411 FILLER_0_1_93
*1412 FILLER_0_20_105
*1413 FILLER_0_20_117
*1414 FILLER_0_20_131
*1415 FILLER_0_20_139
*1416 FILLER_0_20_141
*1417 FILLER_0_20_147
*1418 FILLER_0_20_162
*1419 FILLER_0_20_168
*1420 FILLER_0_20_176
*1421 FILLER_0_20_182
*1422 FILLER_0_20_19
*1423 FILLER_0_20_194
*1424 FILLER_0_20_197
*1425 FILLER_0_20_205
*1426 FILLER_0_20_238
*1427 FILLER_0_20_249
*1428 FILLER_0_20_253
*1429 FILLER_0_20_259
*1430 FILLER_0_20_265
*1431 FILLER_0_20_27
*1432 FILLER_0_20_277
*1433 FILLER_0_20_289
*1434 FILLER_0_20_29
*1435 FILLER_0_20_41
*1436 FILLER_0_20_49
*1437 FILLER_0_20_55
*1438 FILLER_0_20_62
*1439 FILLER_0_20_7
*1440 FILLER_0_20_74
*1441 FILLER_0_20_82
*1442 FILLER_0_20_93
*1443 FILLER_0_21_103
*1444 FILLER_0_21_107
*1445 FILLER_0_21_111
*1446 FILLER_0_21_118
*1447 FILLER_0_21_130
*1448 FILLER_0_21_14
*1449 FILLER_0_21_141
*1450 FILLER_0_21_150
*1451 FILLER_0_21_178
*1452 FILLER_0_21_183
*1453 FILLER_0_21_192
*1454 FILLER_0_21_204
*1455 FILLER_0_21_212
*1456 FILLER_0_21_225
*1457 FILLER_0_21_237
*1458 FILLER_0_21_249
*1459 FILLER_0_21_263
*1460 FILLER_0_21_272
*1461 FILLER_0_21_276
*1462 FILLER_0_21_288
*1463 FILLER_0_21_299
*1464 FILLER_0_21_30
*1465 FILLER_0_21_46
*1466 FILLER_0_21_54
*1467 FILLER_0_21_57
*1468 FILLER_0_21_68
*1469 FILLER_0_21_79
*1470 FILLER_0_21_91
*1471 FILLER_0_22_100
*1472 FILLER_0_22_108
*1473 FILLER_0_22_112
*1474 FILLER_0_22_124
*1475 FILLER_0_22_128
*1476 FILLER_0_22_141
*1477 FILLER_0_22_162
*1478 FILLER_0_22_172
*1479 FILLER_0_22_184
*1480 FILLER_0_22_197
*1481 FILLER_0_22_205
*1482 FILLER_0_22_213
*1483 FILLER_0_22_220
*1484 FILLER_0_22_228
*1485 FILLER_0_22_251
*1486 FILLER_0_22_253
*1487 FILLER_0_22_265
*1488 FILLER_0_22_27
*1489 FILLER_0_22_286
*1490 FILLER_0_22_33
*1491 FILLER_0_22_45
*1492 FILLER_0_22_51
*1493 FILLER_0_22_64
*1494 FILLER_0_22_70
*1495 FILLER_0_22_85
*1496 FILLER_0_23_110
*1497 FILLER_0_23_113
*1498 FILLER_0_23_125
*1499 FILLER_0_23_137
*1500 FILLER_0_23_15
*1501 FILLER_0_23_150
*1502 FILLER_0_23_164
*1503 FILLER_0_23_169
*1504 FILLER_0_23_175
*1505 FILLER_0_23_195
*1506 FILLER_0_23_209
*1507 FILLER_0_23_21
*1508 FILLER_0_23_220
*1509 FILLER_0_23_225
*1510 FILLER_0_23_237
*1511 FILLER_0_23_241
*1512 FILLER_0_23_260
*1513 FILLER_0_23_272
*1514 FILLER_0_23_281
*1515 FILLER_0_23_293
*1516 FILLER_0_23_3
*1517 FILLER_0_23_33
*1518 FILLER_0_23_42
*1519 FILLER_0_23_54
*1520 FILLER_0_23_57
*1521 FILLER_0_23_61
*1522 FILLER_0_23_73
*1523 FILLER_0_23_98
*1524 FILLER_0_24_109
*1525 FILLER_0_24_125
*1526 FILLER_0_24_130
*1527 FILLER_0_24_141
*1528 FILLER_0_24_149
*1529 FILLER_0_24_15
*1530 FILLER_0_24_175
*1531 FILLER_0_24_187
*1532 FILLER_0_24_195
*1533 FILLER_0_24_200
*1534 FILLER_0_24_212
*1535 FILLER_0_24_218
*1536 FILLER_0_24_230
*1537 FILLER_0_24_242
*1538 FILLER_0_24_250
*1539 FILLER_0_24_253
*1540 FILLER_0_24_259
*1541 FILLER_0_24_269
*1542 FILLER_0_24_27
*1543 FILLER_0_24_281
*1544 FILLER_0_24_285
*1545 FILLER_0_24_292
*1546 FILLER_0_24_3
*1547 FILLER_0_24_300
*1548 FILLER_0_24_33
*1549 FILLER_0_24_51
*1550 FILLER_0_24_63
*1551 FILLER_0_24_70
*1552 FILLER_0_24_82
*1553 FILLER_0_24_91
*1554 FILLER_0_25_104
*1555 FILLER_0_25_11
*1556 FILLER_0_25_113
*1557 FILLER_0_25_120
*1558 FILLER_0_25_128
*1559 FILLER_0_25_147
*1560 FILLER_0_25_165
*1561 FILLER_0_25_179
*1562 FILLER_0_25_195
*1563 FILLER_0_25_20
*1564 FILLER_0_25_207
*1565 FILLER_0_25_211
*1566 FILLER_0_25_216
*1567 FILLER_0_25_225
*1568 FILLER_0_25_235
*1569 FILLER_0_25_251
*1570 FILLER_0_25_263
*1571 FILLER_0_25_275
*1572 FILLER_0_25_281
*1573 FILLER_0_25_300
*1574 FILLER_0_25_32
*1575 FILLER_0_25_44
*1576 FILLER_0_25_53
*1577 FILLER_0_25_63
*1578 FILLER_0_25_7
*1579 FILLER_0_25_71
*1580 FILLER_0_25_94
*1581 FILLER_0_26_103
*1582 FILLER_0_26_111
*1583 FILLER_0_26_132
*1584 FILLER_0_26_146
*1585 FILLER_0_26_167
*1586 FILLER_0_26_180
*1587 FILLER_0_26_188
*1588 FILLER_0_26_205
*1589 FILLER_0_26_215
*1590 FILLER_0_26_223
*1591 FILLER_0_26_244
*1592 FILLER_0_26_27
*1593 FILLER_0_26_274
*1594 FILLER_0_26_293
*1595 FILLER_0_26_41
*1596 FILLER_0_26_53
*1597 FILLER_0_26_67
*1598 FILLER_0_26_82
*1599 FILLER_0_26_85
*1600 FILLER_0_26_95
*1601 FILLER_0_27_109
*1602 FILLER_0_27_113
*1603 FILLER_0_27_125
*1604 FILLER_0_27_141
*1605 FILLER_0_27_15
*1606 FILLER_0_27_159
*1607 FILLER_0_27_167
*1608 FILLER_0_27_169
*1609 FILLER_0_27_188
*1610 FILLER_0_27_196
*1611 FILLER_0_27_205
*1612 FILLER_0_27_217
*1613 FILLER_0_27_223
*1614 FILLER_0_27_225
*1615 FILLER_0_27_237
*1616 FILLER_0_27_245
*1617 FILLER_0_27_255
*1618 FILLER_0_27_263
*1619 FILLER_0_27_273
*1620 FILLER_0_27_279
*1621 FILLER_0_27_281
*1622 FILLER_0_27_29
*1623 FILLER_0_27_3
*1624 FILLER_0_27_41
*1625 FILLER_0_27_50
*1626 FILLER_0_27_57
*1627 FILLER_0_27_97
*1628 FILLER_0_28_125
*1629 FILLER_0_28_137
*1630 FILLER_0_28_141
*1631 FILLER_0_28_153
*1632 FILLER_0_28_161
*1633 FILLER_0_28_17
*1634 FILLER_0_28_173
*1635 FILLER_0_28_185
*1636 FILLER_0_28_193
*1637 FILLER_0_28_197
*1638 FILLER_0_28_205
*1639 FILLER_0_28_210
*1640 FILLER_0_28_220
*1641 FILLER_0_28_237
*1642 FILLER_0_28_249
*1643 FILLER_0_28_25
*1644 FILLER_0_28_259
*1645 FILLER_0_28_271
*1646 FILLER_0_28_286
*1647 FILLER_0_28_29
*1648 FILLER_0_28_298
*1649 FILLER_0_28_304
*1650 FILLER_0_28_35
*1651 FILLER_0_28_43
*1652 FILLER_0_28_56
*1653 FILLER_0_28_61
*1654 FILLER_0_28_7
*1655 FILLER_0_28_71
*1656 FILLER_0_28_83
*1657 FILLER_0_28_85
*1658 FILLER_0_28_97
*1659 FILLER_0_29_109
*1660 FILLER_0_29_113
*1661 FILLER_0_29_125
*1662 FILLER_0_29_136
*1663 FILLER_0_29_146
*1664 FILLER_0_29_152
*1665 FILLER_0_29_162
*1666 FILLER_0_29_169
*1667 FILLER_0_29_176
*1668 FILLER_0_29_19
*1669 FILLER_0_29_199
*1670 FILLER_0_29_207
*1671 FILLER_0_29_215
*1672 FILLER_0_29_223
*1673 FILLER_0_29_225
*1674 FILLER_0_29_246
*1675 FILLER_0_29_258
*1676 FILLER_0_29_272
*1677 FILLER_0_29_281
*1678 FILLER_0_29_293
*1679 FILLER_0_29_49
*1680 FILLER_0_29_55
*1681 FILLER_0_29_57
*1682 FILLER_0_29_69
*1683 FILLER_0_29_77
*1684 FILLER_0_29_97
*1685 FILLER_0_2_119
*1686 FILLER_0_2_131
*1687 FILLER_0_2_139
*1688 FILLER_0_2_141
*1689 FILLER_0_2_15
*1690 FILLER_0_2_153
*1691 FILLER_0_2_165
*1692 FILLER_0_2_177
*1693 FILLER_0_2_189
*1694 FILLER_0_2_195
*1695 FILLER_0_2_197
*1696 FILLER_0_2_209
*1697 FILLER_0_2_221
*1698 FILLER_0_2_233
*1699 FILLER_0_2_245
*1700 FILLER_0_2_251
*1701 FILLER_0_2_253
*1702 FILLER_0_2_265
*1703 FILLER_0_2_27
*1704 FILLER_0_2_277
*1705 FILLER_0_2_289
*1706 FILLER_0_2_29
*1707 FILLER_0_2_3
*1708 FILLER_0_2_301
*1709 FILLER_0_2_41
*1710 FILLER_0_2_53
*1711 FILLER_0_2_65
*1712 FILLER_0_2_77
*1713 FILLER_0_2_83
*1714 FILLER_0_2_85
*1715 FILLER_0_2_97
*1716 FILLER_0_30_104
*1717 FILLER_0_30_112
*1718 FILLER_0_30_125
*1719 FILLER_0_30_129
*1720 FILLER_0_30_136
*1721 FILLER_0_30_153
*1722 FILLER_0_30_165
*1723 FILLER_0_30_180
*1724 FILLER_0_30_184
*1725 FILLER_0_30_197
*1726 FILLER_0_30_209
*1727 FILLER_0_30_221
*1728 FILLER_0_30_238
*1729 FILLER_0_30_24
*1730 FILLER_0_30_250
*1731 FILLER_0_30_253
*1732 FILLER_0_30_270
*1733 FILLER_0_30_278
*1734 FILLER_0_30_29
*1735 FILLER_0_30_291
*1736 FILLER_0_30_3
*1737 FILLER_0_30_41
*1738 FILLER_0_30_56
*1739 FILLER_0_30_68
*1740 FILLER_0_30_80
*1741 FILLER_0_31_111
*1742 FILLER_0_31_123
*1743 FILLER_0_31_135
*1744 FILLER_0_31_141
*1745 FILLER_0_31_15
*1746 FILLER_0_31_153
*1747 FILLER_0_31_157
*1748 FILLER_0_31_166
*1749 FILLER_0_31_179
*1750 FILLER_0_31_185
*1751 FILLER_0_31_202
*1752 FILLER_0_31_220
*1753 FILLER_0_31_233
*1754 FILLER_0_31_237
*1755 FILLER_0_31_245
*1756 FILLER_0_31_257
*1757 FILLER_0_31_269
*1758 FILLER_0_31_277
*1759 FILLER_0_31_281
*1760 FILLER_0_31_286
*1761 FILLER_0_31_3
*1762 FILLER_0_31_31
*1763 FILLER_0_31_39
*1764 FILLER_0_31_47
*1765 FILLER_0_31_51
*1766 FILLER_0_31_57
*1767 FILLER_0_31_75
*1768 FILLER_0_31_87
*1769 FILLER_0_31_99
*1770 FILLER_0_32_104
*1771 FILLER_0_32_117
*1772 FILLER_0_32_129
*1773 FILLER_0_32_134
*1774 FILLER_0_32_141
*1775 FILLER_0_32_15
*1776 FILLER_0_32_154
*1777 FILLER_0_32_168
*1778 FILLER_0_32_172
*1779 FILLER_0_32_180
*1780 FILLER_0_32_192
*1781 FILLER_0_32_205
*1782 FILLER_0_32_217
*1783 FILLER_0_32_229
*1784 FILLER_0_32_241
*1785 FILLER_0_32_249
*1786 FILLER_0_32_260
*1787 FILLER_0_32_264
*1788 FILLER_0_32_27
*1789 FILLER_0_32_270
*1790 FILLER_0_32_276
*1791 FILLER_0_32_29
*1792 FILLER_0_32_294
*1793 FILLER_0_32_3
*1794 FILLER_0_32_41
*1795 FILLER_0_32_53
*1796 FILLER_0_32_65
*1797 FILLER_0_32_77
*1798 FILLER_0_32_83
*1799 FILLER_0_32_92
*1800 FILLER_0_33_103
*1801 FILLER_0_33_111
*1802 FILLER_0_33_113
*1803 FILLER_0_33_121
*1804 FILLER_0_33_130
*1805 FILLER_0_33_143
*1806 FILLER_0_33_147
*1807 FILLER_0_33_172
*1808 FILLER_0_33_188
*1809 FILLER_0_33_200
*1810 FILLER_0_33_208
*1811 FILLER_0_33_232
*1812 FILLER_0_33_246
*1813 FILLER_0_33_258
*1814 FILLER_0_33_266
*1815 FILLER_0_33_273
*1816 FILLER_0_33_279
*1817 FILLER_0_33_281
*1818 FILLER_0_33_288
*1819 FILLER_0_33_3
*1820 FILLER_0_33_300
*1821 FILLER_0_33_43
*1822 FILLER_0_33_47
*1823 FILLER_0_33_55
*1824 FILLER_0_33_65
*1825 FILLER_0_33_77
*1826 FILLER_0_33_86
*1827 FILLER_0_33_94
*1828 FILLER_0_34_101
*1829 FILLER_0_34_113
*1830 FILLER_0_34_117
*1831 FILLER_0_34_126
*1832 FILLER_0_34_14
*1833 FILLER_0_34_147
*1834 FILLER_0_34_155
*1835 FILLER_0_34_164
*1836 FILLER_0_34_176
*1837 FILLER_0_34_188
*1838 FILLER_0_34_20
*1839 FILLER_0_34_203
*1840 FILLER_0_34_211
*1841 FILLER_0_34_232
*1842 FILLER_0_34_244
*1843 FILLER_0_34_260
*1844 FILLER_0_34_268
*1845 FILLER_0_34_274
*1846 FILLER_0_34_279
*1847 FILLER_0_34_29
*1848 FILLER_0_34_291
*1849 FILLER_0_34_299
*1850 FILLER_0_34_3