*SPEF "ieee 1481-1999"
*DESIGN "cust_rom"
*DATE "05:54:39 Wednesday September 25, 2024"
*VENDOR "The OpenROAD Project"
*PROGRAM "OpenROAD"
*VERSION "b16bda7e82721d10566ff7e2b68f1ff0be9f9e38"
*DESIGN_FLOW "NAME_SCOPE LOCAL" "PIN_CAP NONE"
*DIVIDER /
*DELIMITER :
*BUS_DELIMITER []
*T_UNIT 1 NS
*C_UNIT 1 PF
*R_UNIT 1 OHM
*L_UNIT 1 HENRY

*NAME_MAP
*3 addr0[0]
*4 addr0[1]
*5 addr0[2]
*6 addr0[3]
*7 addr0[4]
*8 addr0[5]
*9 addr0[6]
*10 addr0[7]
*11 clk0
*12 cs0
*13 dout0[0]
*14 dout0[10]
*15 dout0[11]
*16 dout0[12]
*17 dout0[13]
*18 dout0[14]
*19 dout0[15]
*20 dout0[16]
*21 dout0[17]
*22 dout0[18]
*23 dout0[19]
*24 dout0[1]
*25 dout0[20]
*26 dout0[21]
*27 dout0[22]
*28 dout0[23]
*29 dout0[24]
*30 dout0[25]
*31 dout0[26]
*32 dout0[27]
*33 dout0[28]
*34 dout0[29]
*35 dout0[2]
*36 dout0[30]
*37 dout0[31]
*38 net140
*39 dout0[3]
*40 dout0[4]
*41 dout0[5]
*42 dout0[6]
*43 dout0[7]
*44 dout0[8]
*45 dout0[9]
*46 _0000_
*47 _0001_
*48 _0002_
*49 _0003_
*50 _0004_
*51 _0005_
*52 _0006_
*53 _0007_
*54 _0008_
*55 _0009_
*56 _0010_
*57 _0011_
*58 _0012_
*59 _0013_
*60 _0014_
*61 _0015_
*62 _0016_
*63 _0017_
*64 _0018_
*65 _0019_
*66 _0020_
*67 _0021_
*68 _0022_
*69 _0023_
*70 _0024_
*71 _0025_
*72 _0026_
*73 _0027_
*74 _0028_
*75 _0029_
*76 _0030_
*77 _0031_
*78 _0032_
*79 _0033_
*80 _0034_
*81 _0035_
*82 _0036_
*83 _0037_
*84 _0038_
*85 _0039_
*86 _0040_
*87 _0041_
*88 _0042_
*89 _0043_
*90 _0044_
*91 _0045_
*92 _0046_
*93 _0047_
*94 _0048_
*95 _0049_
*96 _0050_
*97 _0051_
*98 _0052_
*99 _0053_
*100 _0054_
*101 _0055_
*102 _0056_
*103 _0057_
*104 _0058_
*105 _0059_
*106 _0060_
*107 _0061_
*108 _0062_
*109 _0063_
*110 _0064_
*111 _0065_
*112 _0066_
*113 _0067_
*114 _0068_
*115 _0069_
*116 _0070_
*117 _0071_
*118 _0072_
*119 _0073_
*120 _0074_
*121 _0075_
*122 _0076_
*123 _0077_
*124 _0078_
*125 _0079_
*126 _0080_
*127 _0081_
*128 _0082_
*129 _0083_
*130 _0084_
*131 _0085_
*132 _0086_
*133 _0087_
*134 _0088_
*135 _0089_
*136 _0090_
*137 _0091_
*138 _0092_
*139 _0093_
*140 _0094_
*141 _0095_
*142 _0096_
*143 _0097_
*144 _0098_
*145 _0099_
*146 _0100_
*147 _0101_
*148 _0102_
*149 _0103_
*150 _0104_
*151 _0105_
*152 _0106_
*153 _0107_
*154 _0108_
*155 _0109_
*156 _0110_
*157 _0111_
*158 _0112_
*159 _0113_
*160 _0114_
*161 _0115_
*162 _0116_
*163 _0117_
*164 _0118_
*165 _0119_
*166 _0120_
*167 _0121_
*168 _0122_
*169 _0123_
*170 _0124_
*171 _0125_
*172 _0126_
*173 _0127_
*174 _0128_
*175 _0129_
*176 _0130_
*177 _0131_
*178 _0132_
*179 _0133_
*180 _0134_
*181 _0135_
*182 _0136_
*183 _0137_
*184 _0138_
*185 _0139_
*186 _0140_
*187 _0141_
*188 _0142_
*189 _0143_
*190 _0144_
*191 _0145_
*192 _0146_
*193 _0147_
*194 _0148_
*195 _0149_
*196 _0150_
*197 _0151_
*198 _0152_
*199 _0153_
*200 _0154_
*201 _0155_
*202 _0156_
*203 _0157_
*204 _0158_
*205 _0159_
*206 _0160_
*207 _0161_
*208 _0162_
*209 _0163_
*210 _0164_
*211 _0165_
*212 _0166_
*213 _0167_
*214 _0168_
*215 _0169_
*216 _0170_
*217 _0171_
*218 _0172_
*219 _0173_
*220 _0174_
*221 _0175_
*222 _0176_
*223 _0177_
*224 _0178_
*225 _0179_
*226 _0180_
*227 _0181_
*228 _0182_
*229 _0183_
*230 _0184_
*231 _0185_
*232 _0186_
*233 _0187_
*234 _0188_
*235 _0189_
*236 _0190_
*237 _0191_
*238 _0192_
*239 _0193_
*240 _0194_
*241 _0195_
*242 _0196_
*243 _0197_
*244 _0198_
*245 _0199_
*246 _0200_
*247 _0201_
*248 _0202_
*249 _0203_
*250 _0204_
*251 _0205_
*252 _0206_
*253 _0207_
*254 _0208_
*255 _0209_
*256 _0210_
*257 _0211_
*258 _0212_
*259 _0213_
*260 _0214_
*261 _0215_
*262 _0216_
*263 _0217_
*264 _0218_
*265 _0219_
*266 _0220_
*267 _0221_
*268 _0222_
*269 _0223_
*270 _0224_
*271 _0225_
*272 _0226_
*273 _0227_
*274 _0228_
*275 _0229_
*276 _0230_
*277 _0231_
*278 _0232_
*279 _0233_
*280 _0234_
*281 _0235_
*282 _0236_
*283 _0237_
*284 _0238_
*285 _0239_
*286 _0240_
*287 _0241_
*288 _0242_
*289 _0243_
*290 _0244_
*291 _0245_
*292 _0246_
*293 _0247_
*294 _0248_
*295 _0249_
*296 _0250_
*297 _0251_
*298 _0252_
*299 _0253_
*300 _0254_
*301 _0255_
*302 _0256_
*303 _0257_
*304 _0258_
*305 _0259_
*306 _0260_
*307 _0261_
*308 _0262_
*309 _0263_
*310 _0264_
*311 _0265_
*312 _0266_
*313 _0267_
*314 _0268_
*315 _0269_
*316 _0270_
*317 _0271_
*318 _0272_
*319 _0273_
*320 _0274_
*321 _0275_
*322 _0276_
*323 _0277_
*324 _0278_
*325 _0279_
*326 _0280_
*327 _0281_
*328 _0282_
*329 _0283_
*330 _0284_
*331 _0285_
*332 _0286_
*333 _0287_
*334 _0288_
*335 _0289_
*336 _0290_
*337 _0291_
*338 _0292_
*339 _0293_
*340 _0294_
*341 _0295_
*342 _0296_
*343 _0297_
*344 _0298_
*345 _0299_
*346 _0300_
*347 _0301_
*348 _0302_
*349 _0303_
*350 _0304_
*351 _0305_
*352 _0306_
*353 _0307_
*354 _0308_
*355 _0309_
*356 _0310_
*357 _0311_
*358 _0312_
*359 _0313_
*360 _0314_
*361 _0315_
*362 _0316_
*363 _0317_
*364 _0318_
*365 _0319_
*366 _0320_
*367 _0321_
*368 _0322_
*369 _0323_
*370 _0324_
*371 _0325_
*372 _0326_
*373 _0327_
*374 _0328_
*375 _0329_
*376 _0330_
*377 _0331_
*378 _0332_
*379 _0333_
*380 _0334_
*381 _0335_
*382 _0336_
*383 _0337_
*384 _0338_
*385 _0339_
*386 _0340_
*387 _0341_
*388 _0342_
*389 _0343_
*390 _0344_
*391 _0345_
*392 _0346_
*393 _0347_
*394 _0348_
*395 _0349_
*396 _0350_
*397 _0351_
*398 _0352_
*399 _0353_
*400 _0354_
*401 _0355_
*402 _0356_
*403 _0357_
*404 _0358_
*405 _0359_
*406 _0360_
*407 _0361_
*408 _0362_
*409 _0363_
*410 _0364_
*411 _0365_
*412 _0366_
*413 _0367_
*414 _0368_
*415 _0369_
*416 _0370_
*417 _0371_
*418 _0372_
*419 _0373_
*420 _0374_
*421 _0375_
*422 _0376_
*423 _0377_
*424 _0378_
*425 _0379_
*426 _0380_
*427 _0381_
*428 _0382_
*429 _0383_
*430 _0384_
*431 _0385_
*432 _0386_
*433 _0387_
*434 _0388_
*435 _0389_
*436 _0390_
*437 _0391_
*438 _0392_
*439 _0393_
*440 _0394_
*441 _0395_
*442 _0396_
*443 _0397_
*444 _0398_
*445 _0399_
*446 _0400_
*447 _0401_
*448 _0402_
*449 _0403_
*450 _0404_
*451 _0405_
*452 _0406_
*453 _0407_
*454 _0408_
*455 _0409_
*456 _0410_
*457 _0411_
*458 _0412_
*459 _0413_
*460 _0414_
*461 _0415_
*462 _0416_
*463 _0417_
*464 _0418_
*465 _0419_
*466 _0420_
*467 _0421_
*468 _0422_
*469 _0423_
*470 _0424_
*471 _0425_
*472 _0426_
*473 _0427_
*474 _0428_
*475 _0429_
*476 _0430_
*477 _0431_
*478 _0432_
*479 _0433_
*480 _0434_
*481 _0435_
*482 _0436_
*483 _0437_
*484 _0438_
*485 _0439_
*486 _0440_
*487 _0441_
*488 _0442_
*489 _0443_
*490 _0444_
*491 _0445_
*492 _0446_
*493 _0447_
*494 _0448_
*495 _0449_
*496 _0450_
*497 _0451_
*498 _0452_
*499 _0453_
*500 _0454_
*501 _0455_
*502 _0456_
*503 _0457_
*504 _0458_
*505 _0459_
*506 _0460_
*507 _0461_
*508 _0462_
*509 _0463_
*510 _0464_
*511 _0465_
*512 _0466_
*513 _0467_
*514 _0468_
*515 _0469_
*516 _0470_
*517 _0471_
*518 _0472_
*519 _0473_
*520 _0474_
*521 _0475_
*522 _0476_
*523 _0477_
*524 _0478_
*525 _0479_
*526 _0480_
*527 _0481_
*528 _0482_
*529 _0483_
*530 _0484_
*531 _0485_
*532 _0486_
*533 _0487_
*534 _0488_
*535 _0489_
*536 _0490_
*537 _0491_
*538 _0492_
*539 _0493_
*540 _0494_
*541 _0495_
*542 _0496_
*543 _0497_
*544 _0498_
*545 _0499_
*546 _0500_
*547 _0501_
*548 _0502_
*549 _0503_
*550 _0504_
*551 _0505_
*552 _0506_
*553 _0507_
*554 _0508_
*555 _0509_
*556 _0510_
*557 _0511_
*558 _0512_
*559 _0513_
*560 _0514_
*561 _0515_
*562 _0516_
*563 _0517_
*564 _0518_
*565 _0519_
*566 _0520_
*567 _0521_
*568 _0522_
*569 _0523_
*570 _0524_
*571 _0525_
*572 _0526_
*573 _0527_
*574 _0528_
*575 _0529_
*576 _0530_
*577 _0531_
*578 _0532_
*579 _0533_
*580 _0534_
*581 _0535_
*582 _0536_
*583 _0537_
*584 _0538_
*585 _0539_
*586 _0540_
*587 _0541_
*588 _0542_
*589 _0543_
*590 _0544_
*591 _0545_
*592 _0546_
*593 _0547_
*594 _0548_
*595 _0549_
*596 _0550_
*597 _0551_
*598 _0552_
*599 _0553_
*600 _0554_
*601 _0555_
*602 _0556_
*603 _0557_
*604 _0558_
*605 _0559_
*606 _0560_
*607 _0561_
*608 _0562_
*609 _0563_
*610 _0564_
*611 _0565_
*612 _0566_
*613 _0567_
*614 _0568_
*615 _0569_
*616 _0570_
*617 _0571_
*618 _0572_
*619 _0573_
*620 _0574_
*621 _0575_
*622 _0576_
*623 _0577_
*624 _0578_
*625 _0579_
*626 _0580_
*627 _0581_
*628 _0582_
*629 _0583_
*630 _0584_
*631 _0585_
*632 _0586_
*633 _0587_
*634 _0588_
*635 _0589_
*636 _0590_
*637 _0591_
*638 _0592_
*639 _0593_
*640 _0594_
*641 _0595_
*642 _0596_
*643 _0597_
*644 _0598_
*645 _0599_
*646 _0600_
*647 _0601_
*648 _0602_
*649 _0603_
*650 _0604_
*651 _0605_
*652 _0606_
*653 _0607_
*654 _0608_
*655 _0609_
*656 _0610_
*657 _0611_
*658 _0612_
*659 _0613_
*660 _0614_
*661 _0615_
*662 _0616_
*663 _0617_
*664 _0618_
*665 _0619_
*666 _0620_
*667 _0621_
*668 _0622_
*669 _0623_
*670 _0624_
*671 _0625_
*672 _0626_
*673 _0627_
*674 _0628_
*675 _0629_
*676 _0630_
*677 _0631_
*678 _0632_
*679 _0633_
*680 _0634_
*681 _0635_
*682 _0636_
*683 _0637_
*684 _0638_
*685 _0639_
*686 _0640_
*687 _0641_
*688 _0642_
*689 _0643_
*690 _0644_
*691 _0645_
*692 _0646_
*693 _0647_
*694 _0648_
*695 _0649_
*696 _0650_
*697 _0651_
*698 _0652_
*699 _0653_
*700 _0654_
*701 _0655_
*702 _0656_
*703 _0657_
*704 _0658_
*705 _0659_
*706 _0660_
*707 _0661_
*708 _0662_
*709 _0663_
*710 _0664_
*711 _0665_
*712 _0666_
*713 _0667_
*714 _0668_
*715 _0669_
*716 _0670_
*717 _0671_
*718 _0672_
*719 _0673_
*720 _0674_
*721 _0675_
*722 _0676_
*723 _0677_
*724 _0678_
*725 _0679_
*726 _0680_
*727 _0681_
*728 _0682_
*729 _0683_
*730 _0684_
*731 _0685_
*732 _0686_
*733 _0687_
*734 _0688_
*735 _0689_
*736 _0690_
*737 _0691_
*738 _0692_
*739 _0693_
*740 _0694_
*741 _0695_
*742 _0696_
*743 _0697_
*744 _0698_
*745 _0699_
*746 _0700_
*747 _0701_
*748 _0702_
*749 _0703_
*750 _0704_
*751 _0705_
*752 _0706_
*753 _0707_
*754 _0708_
*755 _0709_
*756 _0710_
*757 _0711_
*758 _0712_
*759 _0713_
*760 addr0_reg\[0\]
*761 addr0_reg\[1\]
*762 addr0_reg\[2\]
*763 addr0_reg\[3\]
*764 addr0_reg\[4\]
*765 addr0_reg\[5\]
*766 addr0_reg\[6\]
*767 addr0_reg\[7\]
*768 clknet_0_clk0
*769 clknet_2_0__leaf_clk0
*770 clknet_2_1__leaf_clk0
*771 clknet_2_2__leaf_clk0
*772 clknet_2_3__leaf_clk0
*773 net1
*774 net10
*775 net100
*776 net101
*777 net102
*778 net103
*779 net104
*780 net105
*781 net106
*782 net107
*783 net108
*784 net109
*785 net11
*786 net110
*787 net111
*788 net112
*789 net113
*790 net114
*791 net115
*792 net116
*793 net117
*794 net118
*795 net119
*796 net12
*797 net120
*798 net121
*799 net122
*800 net123
*801 net124
*802 net125
*803 net126
*804 net127
*805 net128
*806 net129
*807 net13
*808 net130
*809 net131
*810 net132
*811 net133
*812 net134
*813 net135
*814 net136
*815 net137
*816 net138
*817 net139
*818 net14
*819 net141
*820 net142
*821 net143
*822 net144
*823 net145
*824 net146
*825 net147
*826 net148
*827 net149
*828 net15
*829 net150
*830 net151
*831 net152
*832 net153
*833 net154
*834 net155
*835 net156
*836 net157
*837 net158
*838 net159
*839 net16
*840 net160
*841 net161
*842 net162
*843 net163
*844 net164
*845 net165
*846 net166
*847 net167
*848 net168
*849 net169
*850 net17
*851 net170
*852 net171
*853 net172
*854 net18
*855 net19
*856 net2
*857 net20
*858 net21
*859 net22
*860 net23
*861 net24
*862 net25
*863 net26
*864 net27
*865 net28
*866 net29
*867 net3
*868 net30
*869 net31
*870 net32
*871 net33
*872 net34
*873 net35
*874 net36
*875 net37
*876 net38
*877 net39
*878 net4
*879 net40
*880 net41
*881 net42
*882 net43
*883 net44
*884 net45
*885 net46
*886 net47
*887 net48
*888 net49
*889 net5
*890 net50
*891 net51
*892 net52
*893 net53
*894 net54
*895 net55
*896 net56
*897 net57
*898 net58
*899 net59
*900 net6
*901 net60
*902 net61
*903 net62
*904 net63
*905 net64
*906 net65
*907 net66
*908 net67
*909 net68
*910 net69
*911 net7
*912 net70
*913 net71
*914 net72
*915 net73
*916 net74
*917 net75
*918 net76
*919 net77
*920 net78
*921 net79
*922 net8
*923 net80
*924 net81
*925 net82
*926 net83
*927 net84
*928 net85
*929 net86
*930 net87
*931 net88
*932 net89
*933 net9
*934 net90
*935 net91
*936 net92
*937 net93
*938 net94
*939 net95
*940 net96
*941 net97
*942 net98
*943 net99
*944 ANTENNA_1
*945 ANTENNA_10
*946 ANTENNA_11
*947 ANTENNA_12
*948 ANTENNA_13
*949 ANTENNA_14
*950 ANTENNA_15
*951 ANTENNA_16
*952 ANTENNA_17
*953 ANTENNA_18
*954 ANTENNA_19
*955 ANTENNA_2
*956 ANTENNA_20
*957 ANTENNA_21
*958 ANTENNA_22
*959 ANTENNA_23
*960 ANTENNA_24
*961 ANTENNA_25
*962 ANTENNA_26
*963 ANTENNA_27
*964 ANTENNA_28
*965 ANTENNA_3
*966 ANTENNA_4
*967 ANTENNA_5
*968 ANTENNA_6
*969 ANTENNA_7
*970 ANTENNA_8
*971 ANTENNA_9
*972 FILLER_0_0_109
*973 FILLER_0_0_113
*974 FILLER_0_0_125
*975 FILLER_0_0_137
*976 FILLER_0_0_141
*977 FILLER_0_0_149
*978 FILLER_0_0_15
*979 FILLER_0_0_154
*980 FILLER_0_0_166
*981 FILLER_0_0_169
*982 FILLER_0_0_181
*983 FILLER_0_0_193
*984 FILLER_0_0_197
*985 FILLER_0_0_205
*986 FILLER_0_0_210
*987 FILLER_0_0_222
*988 FILLER_0_0_225
*989 FILLER_0_0_233
*990 FILLER_0_0_238
*991 FILLER_0_0_250
*992 FILLER_0_0_253
*993 FILLER_0_0_265
*994 FILLER_0_0_27
*995 FILLER_0_0_277
*996 FILLER_0_0_281
*997 FILLER_0_0_29
*998 FILLER_0_0_3
*999 FILLER_0_0_41
*1000 FILLER_0_0_53
*1001 FILLER_0_0_57
*1002 FILLER_0_0_69
*1003 FILLER_0_0_81
*1004 FILLER_0_0_85
*1005 FILLER_0_0_97
*1006 FILLER_0_10_111
*1007 FILLER_0_10_115
*1008 FILLER_0_10_121
*1009 FILLER_0_10_129
*1010 FILLER_0_10_138
*1011 FILLER_0_10_141
*1012 FILLER_0_10_153
*1013 FILLER_0_10_171
*1014 FILLER_0_10_183
*1015 FILLER_0_10_194
*1016 FILLER_0_10_197
*1017 FILLER_0_10_209
*1018 FILLER_0_10_221
*1019 FILLER_0_10_250
*1020 FILLER_0_10_257
*1021 FILLER_0_10_26
*1022 FILLER_0_10_276
*1023 FILLER_0_10_3
*1024 FILLER_0_10_59
*1025 FILLER_0_10_71
*1026 FILLER_0_10_81
*1027 FILLER_0_11_101
*1028 FILLER_0_11_109
*1029 FILLER_0_11_113
*1030 FILLER_0_11_125
*1031 FILLER_0_11_13
*1032 FILLER_0_11_137
*1033 FILLER_0_11_144
*1034 FILLER_0_11_156
*1035 FILLER_0_11_169
*1036 FILLER_0_11_177
*1037 FILLER_0_11_190
*1038 FILLER_0_11_202
*1039 FILLER_0_11_216
*1040 FILLER_0_11_225
*1041 FILLER_0_11_229
*1042 FILLER_0_11_241
*1043 FILLER_0_11_273
*1044 FILLER_0_11_281
*1045 FILLER_0_11_50
*1046 FILLER_0_11_55
*1047 FILLER_0_11_61
*1048 FILLER_0_11_74
*1049 FILLER_0_11_78
*1050 FILLER_0_11_9
*1051 FILLER_0_12_101
*1052 FILLER_0_12_113
*1053 FILLER_0_12_125
*1054 FILLER_0_12_132
*1055 FILLER_0_12_141
*1056 FILLER_0_12_153
*1057 FILLER_0_12_165
*1058 FILLER_0_12_184
*1059 FILLER_0_12_202
*1060 FILLER_0_12_208
*1061 FILLER_0_12_214
*1062 FILLER_0_12_226
*1063 FILLER_0_12_236
*1064 FILLER_0_12_248
*1065 FILLER_0_12_281
*1066 FILLER_0_12_3
*1067 FILLER_0_12_39
*1068 FILLER_0_12_49
*1069 FILLER_0_12_63
*1070 FILLER_0_12_85
*1071 FILLER_0_13_110
*1072 FILLER_0_13_119
*1073 FILLER_0_13_125
*1074 FILLER_0_13_155
*1075 FILLER_0_13_167
*1076 FILLER_0_13_179
*1077 FILLER_0_13_185
*1078 FILLER_0_13_221
*1079 FILLER_0_13_225
*1080 FILLER_0_13_233
*1081 FILLER_0_13_248
*1082 FILLER_0_13_256
*1083 FILLER_0_13_281
*1084 FILLER_0_13_3
*1085 FILLER_0_13_35
*1086 FILLER_0_13_47
*1087 FILLER_0_13_70
*1088 FILLER_0_13_82
*1089 FILLER_0_14_121
*1090 FILLER_0_14_139
*1091 FILLER_0_14_141
*1092 FILLER_0_14_149
*1093 FILLER_0_14_15
*1094 FILLER_0_14_161
*1095 FILLER_0_14_170
*1096 FILLER_0_14_182
*1097 FILLER_0_14_19
*1098 FILLER_0_14_194
*1099 FILLER_0_14_203
*1100 FILLER_0_14_215
*1101 FILLER_0_14_227
*1102 FILLER_0_14_231
*1103 FILLER_0_14_24
*1104 FILLER_0_14_243
*1105 FILLER_0_14_247
*1106 FILLER_0_14_253
*1107 FILLER_0_14_280
*1108 FILLER_0_14_3
*1109 FILLER_0_14_77
*1110 FILLER_0_14_83
*1111 FILLER_0_14_85
*1112 FILLER_0_14_89
*1113 FILLER_0_14_98
*1114 FILLER_0_15_100
*1115 FILLER_0_15_108
*1116 FILLER_0_15_113
*1117 FILLER_0_15_125
*1118 FILLER_0_15_137
*1119 FILLER_0_15_149
*1120 FILLER_0_15_15
*1121 FILLER_0_15_155
*1122 FILLER_0_15_167
*1123 FILLER_0_15_169
*1124 FILLER_0_15_173
*1125 FILLER_0_15_180
*1126 FILLER_0_15_188
*1127 FILLER_0_15_200
*1128 FILLER_0_15_206
*1129 FILLER_0_15_21
*1130 FILLER_0_15_213
*1131 FILLER_0_15_221
*1132 FILLER_0_15_231
*1133 FILLER_0_15_246
*1134 FILLER_0_15_258
*1135 FILLER_0_15_270
*1136 FILLER_0_15_281
*1137 FILLER_0_15_3
*1138 FILLER_0_15_30
*1139 FILLER_0_15_42
*1140 FILLER_0_15_84
*1141 FILLER_0_16_100
*1142 FILLER_0_16_119
*1143 FILLER_0_16_131
*1144 FILLER_0_16_139
*1145 FILLER_0_16_141
*1146 FILLER_0_16_153
*1147 FILLER_0_16_164
*1148 FILLER_0_16_171
*1149 FILLER_0_16_183
*1150 FILLER_0_16_195
*1151 FILLER_0_16_197
*1152 FILLER_0_16_225
*1153 FILLER_0_16_232
*1154 FILLER_0_16_259
*1155 FILLER_0_16_281
*1156 FILLER_0_16_3
*1157 FILLER_0_16_37
*1158 FILLER_0_16_49
*1159 FILLER_0_16_66
*1160 FILLER_0_16_75
*1161 FILLER_0_16_83
*1162 FILLER_0_17_108
*1163 FILLER_0_17_113
*1164 FILLER_0_17_121
*1165 FILLER_0_17_129
*1166 FILLER_0_17_141
*1167 FILLER_0_17_149
*1168 FILLER_0_17_167
*1169 FILLER_0_17_169
*1170 FILLER_0_17_187
*1171 FILLER_0_17_199
*1172 FILLER_0_17_211
*1173 FILLER_0_17_22
*1174 FILLER_0_17_223
*1175 FILLER_0_17_225
*1176 FILLER_0_17_249
*1177 FILLER_0_17_256
*1178 FILLER_0_17_281
*1179 FILLER_0_17_3
*1180 FILLER_0_17_45
*1181 FILLER_0_17_53
*1182 FILLER_0_17_57
*1183 FILLER_0_17_64
*1184 FILLER_0_17_74
*1185 FILLER_0_17_86
*1186 FILLER_0_17_98
*1187 FILLER_0_18_11
*1188 FILLER_0_18_120
*1189 FILLER_0_18_133
*1190 FILLER_0_18_139
*1191 FILLER_0_18_146
*1192 FILLER_0_18_153
*1193 FILLER_0_18_166
*1194 FILLER_0_18_178
*1195 FILLER_0_18_186
*1196 FILLER_0_18_192
*1197 FILLER_0_18_197
*1198 FILLER_0_18_201
*1199 FILLER_0_18_213
*1200 FILLER_0_18_225
*1201 FILLER_0_18_231
*1202 FILLER_0_18_250
*1203 FILLER_0_18_253
*1204 FILLER_0_18_261
*1205 FILLER_0_18_3
*1206 FILLER_0_18_47
*1207 FILLER_0_18_59
*1208 FILLER_0_18_65
*1209 FILLER_0_18_72
*1210 FILLER_0_18_91
*1211 FILLER_0_18_99
*1212 FILLER_0_19_11
*1213 FILLER_0_19_113
*1214 FILLER_0_19_122
*1215 FILLER_0_19_130
*1216 FILLER_0_19_145
*1217 FILLER_0_19_157
*1218 FILLER_0_19_166
*1219 FILLER_0_19_169
*1220 FILLER_0_19_177
*1221 FILLER_0_19_191
*1222 FILLER_0_19_195
*1223 FILLER_0_19_202
*1224 FILLER_0_19_210
*1225 FILLER_0_19_218
*1226 FILLER_0_19_231
*1227 FILLER_0_19_238
*1228 FILLER_0_19_247
*1229 FILLER_0_19_259
*1230 FILLER_0_19_281
*1231 FILLER_0_19_3
*1232 FILLER_0_19_45
*1233 FILLER_0_19_53
*1234 FILLER_0_19_57
*1235 FILLER_0_19_64
*1236 FILLER_0_19_76
*1237 FILLER_0_19_84
*1238 FILLER_0_19_91
*1239 FILLER_0_19_99
*1240 FILLER_0_1_105
*1241 FILLER_0_1_111
*1242 FILLER_0_1_113
*1243 FILLER_0_1_125
*1244 FILLER_0_1_137
*1245 FILLER_0_1_149
*1246 FILLER_0_1_15
*1247 FILLER_0_1_161
*1248 FILLER_0_1_167
*1249 FILLER_0_1_169
*1250 FILLER_0_1_181
*1251 FILLER_0_1_193
*1252 FILLER_0_1_205
*1253 FILLER_0_1_217
*1254 FILLER_0_1_223
*1255 FILLER_0_1_225
*1256 FILLER_0_1_237
*1257 FILLER_0_1_249
*1258 FILLER_0_1_261
*1259 FILLER_0_1_27
*1260 FILLER_0_1_273
*1261 FILLER_0_1_279
*1262 FILLER_0_1_281
*1263 FILLER_0_1_3
*1264 FILLER_0_1_39
*1265 FILLER_0_1_51
*1266 FILLER_0_1_55
*1267 FILLER_0_1_57
*1268 FILLER_0_1_69
*1269 FILLER_0_1_81
*1270 FILLER_0_1_93
*1271 FILLER_0_20_118
*1272 FILLER_0_20_124
*1273 FILLER_0_20_131
*1274 FILLER_0_20_139
*1275 FILLER_0_20_141
*1276 FILLER_0_20_147
*1277 FILLER_0_20_153
*1278 FILLER_0_20_165
*1279 FILLER_0_20_177
*1280 FILLER_0_20_185
*1281 FILLER_0_20_193
*1282 FILLER_0_20_209
*1283 FILLER_0_20_244
*1284 FILLER_0_20_251
*1285 FILLER_0_20_253
*1286 FILLER_0_20_26
*1287 FILLER_0_20_281
*1288 FILLER_0_20_3
*1289 FILLER_0_20_41
*1290 FILLER_0_20_49
*1291 FILLER_0_20_70
*1292 FILLER_0_20_82
*1293 FILLER_0_20_85
*1294 FILLER_0_20_9
*1295 FILLER_0_21_110
*1296 FILLER_0_21_119
*1297 FILLER_0_21_131
*1298 FILLER_0_21_143
*1299 FILLER_0_21_15
*1300 FILLER_0_21_151
*1301 FILLER_0_21_157
*1302 FILLER_0_21_164
*1303 FILLER_0_21_169
*1304 FILLER_0_21_181
*1305 FILLER_0_21_188
*1306 FILLER_0_21_200
*1307 FILLER_0_21_211
*1308 FILLER_0_21_223
*1309 FILLER_0_21_231
*1310 FILLER_0_21_243
*1311 FILLER_0_21_255
*1312 FILLER_0_21_281
*1313 FILLER_0_21_3
*1314 FILLER_0_21_45
*1315 FILLER_0_21_53
*1316 FILLER_0_21_63
*1317 FILLER_0_21_75
*1318 FILLER_0_21_87
*1319 FILLER_0_21_95
*1320 FILLER_0_21_99
*1321 FILLER_0_22_100
*1322 FILLER_0_22_111
*1323 FILLER_0_22_123
*1324 FILLER_0_22_139
*1325 FILLER_0_22_141
*1326 FILLER_0_22_15
*1327 FILLER_0_22_154
*1328 FILLER_0_22_162
*1329 FILLER_0_22_175
*1330 FILLER_0_22_182
*1331 FILLER_0_22_19
*1332 FILLER_0_22_194
*1333 FILLER_0_22_202
*1334 FILLER_0_22_210
*1335 FILLER_0_22_217
*1336 FILLER_0_22_229
*1337 FILLER_0_22_239
*1338 FILLER_0_22_248
*1339 FILLER_0_22_272
*1340 FILLER_0_22_3
*1341 FILLER_0_22_37
*1342 FILLER_0_22_49
*1343 FILLER_0_22_63
*1344 FILLER_0_22_81
*1345 FILLER_0_22_85
*1346 FILLER_0_22_93
*1347 FILLER_0_23_100
*1348 FILLER_0_23_104
*1349 FILLER_0_23_11
*1350 FILLER_0_23_111
*1351 FILLER_0_23_113
*1352 FILLER_0_23_125
*1353 FILLER_0_23_137
*1354 FILLER_0_23_146
*1355 FILLER_0_23_158
*1356 FILLER_0_23_166
*1357 FILLER_0_23_169
*1358 FILLER_0_23_181
*1359 FILLER_0_23_188
*1360 FILLER_0_23_196
*1361 FILLER_0_23_209
*1362 FILLER_0_23_221
*1363 FILLER_0_23_242
*1364 FILLER_0_23_253
*1365 FILLER_0_23_259
*1366 FILLER_0_23_281
*1367 FILLER_0_23_3
*1368 FILLER_0_23_38
*1369 FILLER_0_23_45
*1370 FILLER_0_23_55
*1371 FILLER_0_23_63
*1372 FILLER_0_23_77
*1373 FILLER_0_24_107
*1374 FILLER_0_24_119
*1375 FILLER_0_24_132
*1376 FILLER_0_24_161
*1377 FILLER_0_24_171
*1378 FILLER_0_24_183
*1379 FILLER_0_24_195
*1380 FILLER_0_24_203
*1381 FILLER_0_24_215
*1382 FILLER_0_24_227
*1383 FILLER_0_24_234
*1384 FILLER_0_24_245
*1385 FILLER_0_24_251
*1386 FILLER_0_24_258
*1387 FILLER_0_24_266
*1388 FILLER_0_24_3
*1389 FILLER_0_24_37
*1390 FILLER_0_24_45
*1391 FILLER_0_24_55
*1392 FILLER_0_24_69
*1393 FILLER_0_24_77
*1394 FILLER_0_24_83
*1395 FILLER_0_24_85
*1396 FILLER_0_24_92
*1397 FILLER_0_25_102
*1398 FILLER_0_25_110
*1399 FILLER_0_25_113
*1400 FILLER_0_25_125
*1401 FILLER_0_25_129
*1402 FILLER_0_25_136
*1403 FILLER_0_25_15
*1404 FILLER_0_25_151
*1405 FILLER_0_25_157
*1406 FILLER_0_25_164
*1407 FILLER_0_25_169
*1408 FILLER_0_25_177
*1409 FILLER_0_25_185
*1410 FILLER_0_25_198
*1411 FILLER_0_25_210
*1412 FILLER_0_25_216
*1413 FILLER_0_25_222
*1414 FILLER_0_25_225
*1415 FILLER_0_25_237
*1416 FILLER_0_25_249
*1417 FILLER_0_25_253
*1418 FILLER_0_25_278
*1419 FILLER_0_25_281
*1420 FILLER_0_25_3
*1421 FILLER_0_25_32
*1422 FILLER_0_25_40
*1423 FILLER_0_25_52
*1424 FILLER_0_25_57
*1425 FILLER_0_25_66
*1426 FILLER_0_25_74
*1427 FILLER_0_25_89
*1428 FILLER_0_25_96
*1429 FILLER_0_26_104
*1430 FILLER_0_26_116
*1431 FILLER_0_26_128
*1432 FILLER_0_26_136
*1433 FILLER_0_26_141
*1434 FILLER_0_26_15
*1435 FILLER_0_26_153
*1436 FILLER_0_26_190
*1437 FILLER_0_26_202
*1438 FILLER_0_26_209
*1439 FILLER_0_26_221
*1440 FILLER_0_26_228
*1441 FILLER_0_26_240
*1442 FILLER_0_26_281
*1443 FILLER_0_26_29
*1444 FILLER_0_26_3
*1445 FILLER_0_26_45
*1446 FILLER_0_26_52
*1447 FILLER_0_26_59
*1448 FILLER_0_26_71
*1449 FILLER_0_26_83
*1450 FILLER_0_26_85
*1451 FILLER_0_26_92
*1452 FILLER_0_27_113
*1453 FILLER_0_27_117
*1454 FILLER_0_27_124
*1455 FILLER_0_27_131
*1456 FILLER_0_27_147
*1457 FILLER_0_27_15
*1458 FILLER_0_27_159
*1459 FILLER_0_27_167
*1460 FILLER_0_27_169
*1461 FILLER_0_27_181
*1462 FILLER_0_27_185
*1463 FILLER_0_27_198
*1464 FILLER_0_27_212
*1465 FILLER_0_27_230
*1466 FILLER_0_27_240
*1467 FILLER_0_27_248
*1468 FILLER_0_27_25
*1469 FILLER_0_27_263
*1470 FILLER_0_27_281
*1471 FILLER_0_27_3
*1472 FILLER_0_27_37
*1473 FILLER_0_27_54
*1474 FILLER_0_27_61
*1475 FILLER_0_27_69
*1476 FILLER_0_27_78
*1477 FILLER_0_27_90
*1478 FILLER_0_27_98
*1479 FILLER_0_28_11
*1480 FILLER_0_28_111
*1481 FILLER_0_28_123
*1482 FILLER_0_28_136
*1483 FILLER_0_28_141
*1484 FILLER_0_28_153
*1485 FILLER_0_28_164
*1486 FILLER_0_28_176
*1487 FILLER_0_28_188
*1488 FILLER_0_28_203
*1489 FILLER_0_28_215
*1490 FILLER_0_28_227
*1491 FILLER_0_28_236
*1492 FILLER_0_28_244
*1493 FILLER_0_28_251
*1494 FILLER_0_28_253
*1495 FILLER_0_28_26
*1496 FILLER_0_28_265
*1497 FILLER_0_28_29
*1498 FILLER_0_28_3
*1499 FILLER_0_28_37
*1500 FILLER_0_28_52
*1501 FILLER_0_28_65
*1502 FILLER_0_28_77
*1503 FILLER_0_28_83
*1504 FILLER_0_28_85
*1505 FILLER_0_28_93
*1506 FILLER_0_28_99
*1507 FILLER_0_29_113
*1508 FILLER_0_29_125
*1509 FILLER_0_29_137
*1510 FILLER_0_29_149
*1511 FILLER_0_29_164
*1512 FILLER_0_29_169
*1513 FILLER_0_29_178
*1514 FILLER_0_29_18
*1515 FILLER_0_29_186
*1516 FILLER_0_29_198
*1517 FILLER_0_29_204
*1518 FILLER_0_29_210
*1519 FILLER_0_29_22
*1520 FILLER_0_29_223
*1521 FILLER_0_29_225
*1522 FILLER_0_29_240
*1523 FILLER_0_29_252
*1524 FILLER_0_29_264
*1525 FILLER_0_29_27
*1526 FILLER_0_29_270
*1527 FILLER_0_29_279
*1528 FILLER_0_29_281
*1529 FILLER_0_29_3
*1530 FILLER_0_29_35
*1531 FILLER_0_29_57
*1532 FILLER_0_29_69
*1533 FILLER_0_29_73
*1534 FILLER_0_29_79
*1535 FILLER_0_29_87
*1536 FILLER_0_29_9
*1537 FILLER_0_29_99
*1538 FILLER_0_2_109
*1539 FILLER_0_2_121
*1540 FILLER_0_2_133
*1541 FILLER_0_2_139
*1542 FILLER_0_2_15
*1543 FILLER_0_2_157
*1544 FILLER_0_2_169
*1545 FILLER_0_2_181
*1546 FILLER_0_2_193
*1547 FILLER_0_2_197
*1548 FILLER_0_2_209
*1549 FILLER_0_2_221
*1550 FILLER_0_2_233
*1551 FILLER_0_2_245
*1552 FILLER_0_2_251
*1553 FILLER_0_2_253
*1554 FILLER_0_2_265
*1555 FILLER_0_2_27
*1556 FILLER_0_2_277
*1557 FILLER_0_2_29
*1558 FILLER_0_2_3
*1559 FILLER_0_2_41
*1560 FILLER_0_2_53
*1561 FILLER_0_2_65
*1562 FILLER_0_2_77
*1563 FILLER_0_2_83
*1564 FILLER_0_2_85
*1565 FILLER_0_2_97
*1566 FILLER_0_30_101
*1567 FILLER_0_30_109
*1568 FILLER_0_30_126
*1569 FILLER_0_30_130
*1570 FILLER_0_30_136
*1571 FILLER_0_30_141
*1572 FILLER_0_30_147
*1573 FILLER_0_30_170
*1574 FILLER_0_30_182
*1575 FILLER_0_30_197
*1576 FILLER_0_30_209
*1577 FILLER_0_30_21
*1578 FILLER_0_30_238
*1579 FILLER_0_30_259
*1580 FILLER_0_30_27
*1581 FILLER_0_30_271
*1582 FILLER_0_30_29
*1583 FILLER_0_30_3
*1584 FILLER_0_30_40
*1585 FILLER_0_30_69
*1586 FILLER_0_30_77
*1587 FILLER_0_30_93
*1588 FILLER_0_31_100
*1589 FILLER_0_31_109
*1590 FILLER_0_31_113
*1591 FILLER_0_31_121
*1592 FILLER_0_31_129
*1593 FILLER_0_31_137
*1594 FILLER_0_31_150
*1595 FILLER_0_31_158
*1596 FILLER_0_31_164
*1597 FILLER_0_31_179
*1598 FILLER_0_31_191
*1599 FILLER_0_31_199
*1600 FILLER_0_31_210
*1601 FILLER_0_31_231
*1602 FILLER_0_31_245
*1603 FILLER_0_31_255
*1604 FILLER_0_31_259
*1605 FILLER_0_31_265
*1606 FILLER_0_31_274
*1607 FILLER_0_31_281
*1608 FILLER_0_31_3
*1609 FILLER_0_31_57
*1610 FILLER_0_31_72
*1611 FILLER_0_31_76
*1612 FILLER_0_31_91
*1613 FILLER_0_32_124
*1614 FILLER_0_32_136
*1615 FILLER_0_32_151
*1616 FILLER_0_32_158
*1617 FILLER_0_32_166
*1618 FILLER_0_32_174
*1619 FILLER_0_32_178
*1620 FILLER_0_32_184
*1621 FILLER_0_32_197
*1622 FILLER_0_32_209
*1623 FILLER_0_32_217
*1624 FILLER_0_32_22
*1625 FILLER_0_32_228
*1626 FILLER_0_32_236
*1627 FILLER_0_32_244
*1628 FILLER_0_32_250
*1629 FILLER_0_32_253
*1630 FILLER_0_32_281
*1631 FILLER_0_32_29
*1632 FILLER_0_32_3
*1633 FILLER_0_32_65
*1634 FILLER_0_32_73
*1635 FILLER_0_32_81
*1636 FILLER_0_32_90
*1637 FILLER_0_33_11
*1638 FILLER_0_33_119
*1639 FILLER_0_33_127
*1640 FILLER_0_33_136
*1641 FILLER_0_33_145
*1642 FILLER_0_33_158
*1643 FILLER_0_33_166
*1644 FILLER_0_33_169
*1645 FILLER_0_33_175
*1646 FILLER_0_33_181
*1647 FILLER_0_33_190
*1648 FILLER_0_33_196
*1649 FILLER_0_33_202
*1650 FILLER_0_33_216
*1651 FILLER_0_33_235
*1652 FILLER_0_33_241
*1653 FILLER_0_33_261
*1654 FILLER_0_33_281
*1655 FILLER_0_33_3
*1656 FILLER_0_33_39
*1657 FILLER_0_33_47
*1658 FILLER_0_33_54
*1659 FILLER_0_33_57
*1660 FILLER_0_33_63
*1661 FILLER_0_33_75
*1662 FILLER_0_33_87
*1663 FILLER_0_33_99
*1664 FILLER_0_34_105
*1665 FILLER_0_34_109
*1666 FILLER_0_34_129
*1667 FILLER_0_34_136
*1668 FILLER_0_34_141
*1669 FILLER_0_34_149
*1670 FILLER_0_34_15
*1671 FILLER_0_34_163
*1672 FILLER_0_34_173
*1673 FILLER_0_34_182
*1674 FILLER_0_34_194
*1675 FILLER_0_34_202
*1676 FILLER_0_34_214
*1677 FILLER_0_34_22
*1678 FILLER_0_34_239
*1679 FILLER_0_34_251
*1680 FILLER_0_34_253
*1681 FILLER_0_34_265
*1682 FILLER_0_34_29
*1683 FILLER_0_34_3
*1684 FILLER_0_34_44
*1685 FILLER_0_34_52
*1686 FILLER_0_34_65
*1687 FILLER_0_34_73
*1688 FILLER_0_34_80
*1689 FILLER_0_34_85
*1690 FILLER_0_34_93
*1691 FILLER_0_35_104
*1692 FILLER_0_35_113
*1693 FILLER_0_35_122
*1694 FILLER_0_35_134
*1695 FILLER_0_35_146
*1696 FILLER_0_35_158
*1697 FILLER_0_35_166
*1698 FILLER_0_35_175
*1699 FILLER_0_35_188
*1700 FILLER_0_35_196
*1701 FILLER_0_35_204
*1702 FILLER_0_35_216
*1703 FILLER_0_35_222
*1704 FILLER_0_35_225
*1705 FILLER_0_35_237
*1706 FILLER_0_35_249
*1707 FILLER_0_35_261
*1708 FILLER_0_35_269
*1709 FILLER_0_35_281
*1710 FILLER_0_35_30
*1711 FILLER_0_35_45
*1712 FILLER_0_35_53
*1713 FILLER_0_35_57
*1714 FILLER_0_35_6
*1715 FILLER_0_35_64
*1716 FILLER_0_35_68
*1717 FILLER_0_35_75
*1718 FILLER_0_35_83
*1719 FILLER_0_35_89
*1720 FILLER_0_35_97
*1721 FILLER_0_36_122
*1722 FILLER_0_36_129
*1723 FILLER_0_36_137
*1724 FILLER_0_36_141
*1725 FILLER_0_36_145
*1726 FILLER_0_36_151
*1727 FILLER_0_36_159
*1728 FILLER_0_36_166
*1729 FILLER_0_36_174
*1730 FILLER_0_36_183
*1731 FILLER_0_36_193
*1732 FILLER_0_36_202
*1733 FILLER_0_36_208
*1734 FILLER_0_36_214
*1735 FILLER_0_36_226
*1736 FILLER_0_36_243
*1737 FILLER_0_36_250
*1738 FILLER_0_36_264
*1739 FILLER_0_36_274
*1740 FILLER_0_36_3
*1741 FILLER_0_36_63
*1742 FILLER_0_36_76
*1743 FILLER_0_37_130
*1744 FILLER_0_37_134
*1745 FILLER_0_37_140
*1746 FILLER_0_37_148
*1747 FILLER_0_37_159
*1748 FILLER_0_37_167
*1749 FILLER_0_37_169
*1750 FILLER_0_37_177
*1751 FILLER_0_37_189
*1752 FILLER_0_37_204
*1753 FILLER_0_37_221
*1754 FILLER_0_37_225
*1755 FILLER_0_37_237
*1756 FILLER_0_37_248
*1757 FILLER_0_37_256
*1758 FILLER_0_37_263
*1759 FILLER_0_37_281
*1760 FILLER_0_38_111
*1761 FILLER_0_38_130
*1762 FILLER_0_38_139
*1763 FILLER_0_38_141
*1764 FILLER_0_38_152
*1765 FILLER_0_38_159
*1766 FILLER_0_38_167
*1767 FILLER_0_38_175
*1768 FILLER_0_38_187
*1769 FILLER_0_38_195
*1770 FILLER_0_38_197
*1771 FILLER_0_38_205
*1772 FILLER_0_38_219
*1773 FILLER_0_38_231
*1774 FILLER_0_38_243
*1775 FILLER_0_38_251
*1776 FILLER_0_38_253
*1777 FILLER_0_38_262
*1778 FILLER_0_38_27
*1779 FILLER_0_38_270
*1780 FILLER_0_38_29
*1781 FILLER_0_38_3
*1782 FILLER_0_38_60
*1783 FILLER_0_38_77
*1784 FILLER_0_38_83
*1785 FILLER_0_38_92
*1786 FILLER_0_38_96
*1787 FILLER_0_39_113
*1788 FILLER_0_39_128
*1789 FILLER_0_39_140
*1790 FILLER_0_39_144
*1791 FILLER_0_39_151
*1792 FILLER_0_39_161
*1793 FILLER_0_39_167
*1794 FILLER_0_39_169
*1795 FILLER_0_39_177
*1796 FILLER_0_39_184
*1797 FILLER_0_39_194
*1798 FILLER_0_39_206
*1799 FILLER_0_39_210
*1800 FILLER_0_39_217
*1801 FILLER_0_39_223
*1802 FILLER_0_39_225
*1803 FILLER_0_39_231