* NGSPICE file created from cust_rom1.ext - technology: sky130A

* Black-box entry subcircuit for sky130_fd_sc_hd__tapvpwrvgnd_1 abstract view
.subckt sky130_fd_sc_hd__tapvpwrvgnd_1 VGND VPWR
.ends

* Black-box entry subcircuit for sky130_fd_sc_hd__fill_2 abstract view
.subckt sky130_fd_sc_hd__fill_2 VGND VNB VPB VPWR
.ends

* Black-box entry subcircuit for sky130_fd_sc_hd__decap_3 abstract view
.subckt sky130_fd_sc_hd__decap_3 VGND VNB VPB VPWR
.ends

* Black-box entry subcircuit for sky130_fd_sc_hd__decap_4 abstract view
.subckt sky130_fd_sc_hd__decap_4 VGND VNB VPB VPWR
.ends

* Black-box entry subcircuit for sky130_ef_sc_hd__decap_12 abstract view
.subckt sky130_ef_sc_hd__decap_12 VPWR VGND VPB VNB
.ends

* Black-box entry subcircuit for sky130_fd_sc_hd__or3_1 abstract view
.subckt sky130_fd_sc_hd__or3_1 A B C VGND VNB VPB VPWR X
.ends

* Black-box entry subcircuit for sky130_fd_sc_hd__fill_1 abstract view
.subckt sky130_fd_sc_hd__fill_1 VGND VNB VPB VPWR
.ends

* Black-box entry subcircuit for sky130_fd_sc_hd__or4_1 abstract view
.subckt sky130_fd_sc_hd__or4_1 A B C D VGND VNB VPB VPWR X
.ends

* Black-box entry subcircuit for sky130_fd_sc_hd__dfxtp_1 abstract view
.subckt sky130_fd_sc_hd__dfxtp_1 CLK D VGND VNB VPB VPWR Q
.ends

* Black-box entry subcircuit for sky130_fd_sc_hd__clkbuf_1 abstract view
.subckt sky130_fd_sc_hd__clkbuf_1 A VGND VNB VPB VPWR X
.ends

* Black-box entry subcircuit for sky130_fd_sc_hd__buf_1 abstract view
.subckt sky130_fd_sc_hd__buf_1 A VGND VNB VPB VPWR X
.ends

* Black-box entry subcircuit for sky130_fd_sc_hd__buf_2 abstract view
.subckt sky130_fd_sc_hd__buf_2 A VGND VNB VPB VPWR X
.ends

* Black-box entry subcircuit for sky130_fd_sc_hd__and4b_1 abstract view
.subckt sky130_fd_sc_hd__and4b_1 A_N B C D VGND VNB VPB VPWR X
.ends

* Black-box entry subcircuit for sky130_fd_sc_hd__decap_8 abstract view
.subckt sky130_fd_sc_hd__decap_8 VGND VNB VPB VPWR
.ends

* Black-box entry subcircuit for sky130_fd_sc_hd__or2_1 abstract view
.subckt sky130_fd_sc_hd__or2_1 A B VGND VNB VPB VPWR X
.ends

* Black-box entry subcircuit for sky130_fd_sc_hd__a22o_1 abstract view
.subckt sky130_fd_sc_hd__a22o_1 A1 A2 B1 B2 VGND VNB VPB VPWR X
.ends

* Black-box entry subcircuit for sky130_fd_sc_hd__decap_6 abstract view
.subckt sky130_fd_sc_hd__decap_6 VGND VNB VPB VPWR
.ends

* Black-box entry subcircuit for sky130_fd_sc_hd__or3_2 abstract view
.subckt sky130_fd_sc_hd__or3_2 A B C VGND VNB VPB VPWR X
.ends

* Black-box entry subcircuit for sky130_fd_sc_hd__dlygate4sd3_1 abstract view
.subckt sky130_fd_sc_hd__dlygate4sd3_1 A VGND VNB VPB VPWR X
.ends

* Black-box entry subcircuit for sky130_fd_sc_hd__diode_2 abstract view
.subckt sky130_fd_sc_hd__diode_2 DIODE VGND VNB VPB VPWR
.ends

* Black-box entry subcircuit for sky130_fd_sc_hd__clkbuf_2 abstract view
.subckt sky130_fd_sc_hd__clkbuf_2 A VGND VNB VPB VPWR X
.ends

* Black-box entry subcircuit for sky130_fd_sc_hd__nor4b_1 abstract view
.subckt sky130_fd_sc_hd__nor4b_1 A B C D_N VGND VNB VPB VPWR Y
.ends

* Black-box entry subcircuit for sky130_fd_sc_hd__and4bb_1 abstract view
.subckt sky130_fd_sc_hd__and4bb_1 A_N B_N C D VGND VNB VPB VPWR X
.ends

* Black-box entry subcircuit for sky130_fd_sc_hd__clkbuf_4 abstract view
.subckt sky130_fd_sc_hd__clkbuf_4 A VGND VNB VPB VPWR X
.ends

* Black-box entry subcircuit for sky130_fd_sc_hd__or4_2 abstract view
.subckt sky130_fd_sc_hd__or4_2 A B C D VGND VNB VPB VPWR X
.ends

* Black-box entry subcircuit for sky130_fd_sc_hd__or2_2 abstract view
.subckt sky130_fd_sc_hd__or2_2 A B VGND VNB VPB VPWR X
.ends

* Black-box entry subcircuit for sky130_fd_sc_hd__o31a_1 abstract view
.subckt sky130_fd_sc_hd__o31a_1 A1 A2 A3 B1 VGND VNB VPB VPWR X
.ends

* Black-box entry subcircuit for sky130_fd_sc_hd__dlymetal6s2s_1 abstract view
.subckt sky130_fd_sc_hd__dlymetal6s2s_1 A VGND VNB VPB VPWR X
.ends

* Black-box entry subcircuit for sky130_fd_sc_hd__bufinv_16 abstract view
.subckt sky130_fd_sc_hd__bufinv_16 A VGND VNB VPB VPWR Y
.ends

* Black-box entry subcircuit for sky130_fd_sc_hd__o21ba_1 abstract view
.subckt sky130_fd_sc_hd__o21ba_1 A1 A2 B1_N VGND VNB VPB VPWR X
.ends

* Black-box entry subcircuit for sky130_fd_sc_hd__clkbuf_16 abstract view
.subckt sky130_fd_sc_hd__clkbuf_16 A VGND VNB VPB VPWR X
.ends

* Black-box entry subcircuit for sky130_fd_sc_hd__and4_1 abstract view
.subckt sky130_fd_sc_hd__and4_1 A B C D VGND VNB VPB VPWR X
.ends

* Black-box entry subcircuit for sky130_fd_sc_hd__nor4_1 abstract view
.subckt sky130_fd_sc_hd__nor4_1 A B C D VGND VNB VPB VPWR Y
.ends

* Black-box entry subcircuit for sky130_fd_sc_hd__inv_2 abstract view
.subckt sky130_fd_sc_hd__inv_2 A VGND VNB VPB VPWR Y
.ends

* Black-box entry subcircuit for sky130_fd_sc_hd__or4b_1 abstract view
.subckt sky130_fd_sc_hd__or4b_1 A B C D_N VGND VNB VPB VPWR X
.ends

* Black-box entry subcircuit for sky130_fd_sc_hd__a21o_1 abstract view
.subckt sky130_fd_sc_hd__a21o_1 A1 A2 B1 VGND VNB VPB VPWR X
.ends

* Black-box entry subcircuit for sky130_fd_sc_hd__and2b_1 abstract view
.subckt sky130_fd_sc_hd__and2b_1 A_N B VGND VNB VPB VPWR X
.ends

.subckt cust_rom1 addr0[0] addr0[1] addr0[2] addr0[3] addr0[4] addr0[5] addr0[6] addr0[7]
+ clk0 cs0 dout0[0] dout0[10] dout0[11] dout0[12] dout0[13] dout0[14] dout0[15] dout0[16]
+ dout0[17] dout0[18] dout0[19] dout0[1] dout0[20] dout0[21] dout0[22] dout0[23] dout0[24]
+ dout0[25] dout0[26] dout0[27] dout0[28] dout0[29] dout0[2] dout0[30] dout0[31] dout0[3]
+ dout0[4] dout0[5] dout0[6] dout0[7] dout0[8] dout0[9] vccd1 vssd1
XTAP_TAPCELL_ROW_52_426 vssd1 vccd1 sky130_fd_sc_hd__tapvpwrvgnd_1
XFILLER_0_17_222 vssd1 vssd1 vccd1 vccd1 sky130_fd_sc_hd__fill_2
XFILLER_0_17_277 vssd1 vssd1 vccd1 vccd1 sky130_fd_sc_hd__decap_3
XFILLER_0_23_18 vssd1 vssd1 vccd1 vccd1 sky130_fd_sc_hd__decap_4
XFILLER_0_48_15 vccd1 vssd1 vccd1 vssd1 sky130_ef_sc_hd__decap_12
XFILLER_0_3_39 vccd1 vssd1 vccd1 vssd1 sky130_ef_sc_hd__decap_12
X_1270_ net223 net220 net218 vssd1 vssd1 vccd1 vccd1 _0564_ sky130_fd_sc_hd__or3_1
XFILLER_0_14_225 vssd1 vssd1 vccd1 vccd1 sky130_fd_sc_hd__fill_1
X_0985_ _0278_ _0284_ _0294_ _0296_ vssd1 vssd1 vccd1 vccd1 _0297_ sky130_fd_sc_hd__or4_1
X_1399_ clknet_2_3__leaf_clk0 _0017_ vssd1 vssd1 vccd1 vccd1 net18 sky130_fd_sc_hd__dfxtp_1
Xfanout127 _0211_ vssd1 vssd1 vccd1 vccd1 net127 sky130_fd_sc_hd__clkbuf_1
XFILLER_0_38_92 vssd1 vssd1 vccd1 vccd1 sky130_fd_sc_hd__decap_4
XFILLER_0_38_81 vssd1 vssd1 vccd1 vccd1 sky130_fd_sc_hd__decap_3
Xfanout105 net106 vssd1 vssd1 vccd1 vccd1 net105 sky130_fd_sc_hd__buf_1
Xfanout138 _0202_ vssd1 vssd1 vccd1 vccd1 net138 sky130_fd_sc_hd__buf_2
Xfanout116 net118 vssd1 vssd1 vccd1 vccd1 net116 sky130_fd_sc_hd__buf_1
Xfanout149 _0187_ vssd1 vssd1 vccd1 vccd1 net149 sky130_fd_sc_hd__clkbuf_1
XFILLER_0_22_291 vccd1 vssd1 vccd1 vssd1 sky130_ef_sc_hd__decap_12
XFILLER_0_52_309 vccd1 vssd1 vccd1 vssd1 sky130_ef_sc_hd__decap_12
XFILLER_0_50_27 vssd1 vssd1 vccd1 vccd1 sky130_fd_sc_hd__fill_1
XTAP_TAPCELL_ROW_28_286 vssd1 vccd1 sky130_fd_sc_hd__tapvpwrvgnd_1
XFILLER_0_51_320 vccd1 vssd1 vccd1 vssd1 sky130_ef_sc_hd__decap_12
X_0770_ net561 net567 net574 net581 vssd1 vssd1 vccd1 vccd1 _0082_ sky130_fd_sc_hd__and4b_1
X_1322_ net217 net199 net153 net129 vssd1 vssd1 vccd1 vccd1 _0612_ sky130_fd_sc_hd__or4_1
X_1253_ _0062_ net202 _0459_ _0540_ vssd1 vssd1 vccd1 vccd1 _0549_ sky130_fd_sc_hd__or4_1
X_1184_ _0309_ _0481_ _0483_ _0484_ vssd1 vssd1 vccd1 vccd1 _0485_ sky130_fd_sc_hd__or4_1
XTAP_TAPCELL_ROW_19_231 vssd1 vccd1 sky130_fd_sc_hd__tapvpwrvgnd_1
XFILLER_0_34_309 vssd1 vssd1 vccd1 vccd1 sky130_fd_sc_hd__decap_8
XFILLER_0_6_277 vccd1 vssd1 vccd1 vssd1 sky130_ef_sc_hd__decap_12
X_0968_ net195 net193 vssd1 vssd1 vccd1 vccd1 _0280_ sky130_fd_sc_hd__or2_1
XFILLER_0_19_317 vssd1 vssd1 vccd1 vccd1 sky130_fd_sc_hd__decap_8
X_0899_ net471 net346 net339 net462 vssd1 vssd1 vccd1 vccd1 _0211_ sky130_fd_sc_hd__a22o_1
XFILLER_0_37_136 vccd1 vssd1 vccd1 vssd1 sky130_ef_sc_hd__decap_12
XTAP_TAPCELL_ROW_25_267 vssd1 vccd1 sky130_fd_sc_hd__tapvpwrvgnd_1
XFILLER_0_52_139 vssd1 vssd1 vccd1 vccd1 sky130_fd_sc_hd__fill_1
XFILLER_0_29_17 vssd1 vssd1 vccd1 vccd1 sky130_fd_sc_hd__decap_8
Xfanout480 net481 vssd1 vssd1 vccd1 vccd1 net480 sky130_fd_sc_hd__clkbuf_1
XFILLER_0_0_29 vccd1 vssd1 vccd1 vssd1 sky130_ef_sc_hd__decap_12
Xfanout491 net492 vssd1 vssd1 vccd1 vccd1 net491 sky130_fd_sc_hd__buf_1
XTAP_TAPCELL_ROW_16_212 vssd1 vccd1 sky130_fd_sc_hd__tapvpwrvgnd_1
X_0822_ net440 net395 net387 net433 vssd1 vssd1 vccd1 vccd1 _0134_ sky130_fd_sc_hd__a22o_1
XFILLER_0_28_136 vssd1 vssd1 vccd1 vccd1 sky130_fd_sc_hd__decap_4
XFILLER_0_9_27 vssd1 vssd1 vccd1 vccd1 sky130_fd_sc_hd__decap_8
XFILLER_0_51_161 vssd1 vssd1 vccd1 vccd1 sky130_fd_sc_hd__decap_6
XFILLER_0_3_236 vccd1 vssd1 vccd1 vssd1 sky130_ef_sc_hd__decap_12
XFILLER_0_3_225 vssd1 vssd1 vccd1 vccd1 sky130_fd_sc_hd__decap_4
X_0753_ net524 net422 net415 net536 vssd1 vssd1 vccd1 vccd1 _0065_ sky130_fd_sc_hd__a22o_1
XTAP_TAPCELL_ROW_39_348 vssd1 vccd1 sky130_fd_sc_hd__tapvpwrvgnd_1
X_1236_ _0499_ _0519_ _0529_ _0532_ vssd1 vssd1 vccd1 vccd1 _0533_ sky130_fd_sc_hd__or4_1
X_1305_ net309 _0206_ _0239_ _0596_ vssd1 vssd1 vccd1 vccd1 _0597_ sky130_fd_sc_hd__or4_1
X_1167_ _0179_ _0192_ _0339_ _0347_ vssd1 vssd1 vccd1 vccd1 _0469_ sky130_fd_sc_hd__or4_1
XFILLER_0_35_71 vssd1 vssd1 vccd1 vccd1 sky130_fd_sc_hd__fill_1
XFILLER_0_19_125 vssd1 vssd1 vccd1 vccd1 sky130_fd_sc_hd__decap_4
X_1098_ net300 net296 net215 net212 vssd1 vssd1 vccd1 vccd1 _0404_ sky130_fd_sc_hd__or4_1
XFILLER_0_51_81 vccd1 vssd1 vccd1 vssd1 sky130_ef_sc_hd__decap_12
XFILLER_0_19_169 vccd1 vssd1 vccd1 vssd1 sky130_ef_sc_hd__decap_12
XTAP_TAPCELL_ROW_22_248 vssd1 vccd1 sky130_fd_sc_hd__tapvpwrvgnd_1
XFILLER_0_42_194 vssd1 vssd1 vccd1 vccd1 sky130_fd_sc_hd__fill_2
XFILLER_0_48_209 vccd1 vssd1 vccd1 vssd1 sky130_ef_sc_hd__decap_12
X_1021_ _0073_ net89 net85 vssd1 vssd1 vccd1 vccd1 _0331_ sky130_fd_sc_hd__or3_2
XFILLER_0_12_301 vssd1 vssd1 vccd1 vccd1 sky130_fd_sc_hd__decap_6
X_0805_ net571 net578 net559 net564 vssd1 vssd1 vccd1 vccd1 _0117_ sky130_fd_sc_hd__and4b_1
X_0736_ net304 net301 net296 vssd1 vssd1 vccd1 vccd1 _0048_ sky130_fd_sc_hd__or3_1
XFILLER_0_46_70 vssd1 vssd1 vccd1 vccd1 sky130_fd_sc_hd__fill_1
X_1219_ _0040_ _0157_ _0514_ _0516_ vssd1 vssd1 vccd1 vccd1 _0517_ sky130_fd_sc_hd__or4_1
XFILLER_0_34_3 vssd1 vssd1 vccd1 vccd1 sky130_fd_sc_hd__decap_4
Xhold30 net36 vssd1 vssd1 vccd1 vccd1 net645 sky130_fd_sc_hd__dlygate4sd3_1
XFILLER_0_53_256 vssd1 vssd1 vccd1 vccd1 sky130_fd_sc_hd__decap_6
XFILLER_0_53_223 vssd1 vssd1 vccd1 vccd1 sky130_fd_sc_hd__fill_1
XTAP_TAPCELL_ROW_41_365 vssd1 vccd1 sky130_fd_sc_hd__tapvpwrvgnd_1
XFILLER_0_38_253 vccd1 vssd1 vccd1 vssd1 sky130_ef_sc_hd__decap_12
XANTENNA_5 _0123_ vssd1 vssd1 vccd1 vccd1 sky130_fd_sc_hd__diode_2
XTAP_TAPCELL_ROW_49_410 vssd1 vccd1 sky130_fd_sc_hd__tapvpwrvgnd_1
XFILLER_0_20_9 vssd1 vssd1 vccd1 vccd1 sky130_fd_sc_hd__fill_1
X_1004_ _0299_ _0301_ _0314_ vssd1 vssd1 vccd1 vccd1 _0315_ sky130_fd_sc_hd__or3_1
XTAP_TAPCELL_ROW_32_310 vssd1 vccd1 sky130_fd_sc_hd__tapvpwrvgnd_1
XFILLER_0_32_50 vssd1 vssd1 vccd1 vccd1 sky130_fd_sc_hd__fill_2
XFILLER_0_29_275 vssd1 vssd1 vccd1 vccd1 sky130_fd_sc_hd__decap_4
XFILLER_0_12_186 vssd1 vssd1 vccd1 vccd1 sky130_fd_sc_hd__decap_8
XFILLER_0_12_197 vssd1 vssd1 vccd1 vccd1 sky130_fd_sc_hd__decap_8
X_0719_ net322 net315 vssd1 vssd1 vccd1 vccd1 _0031_ sky130_fd_sc_hd__or2_1
XFILLER_0_50_215 vssd1 vssd1 vccd1 vccd1 sky130_fd_sc_hd__fill_1
XFILLER_0_35_212 vssd1 vssd1 vccd1 vccd1 sky130_fd_sc_hd__decap_8
Xoutput31 net31 vssd1 vssd1 vccd1 vccd1 dout0[29] sky130_fd_sc_hd__buf_2
Xoutput20 net20 vssd1 vssd1 vccd1 vccd1 dout0[19] sky130_fd_sc_hd__buf_2
XFILLER_0_53_27 vssd1 vssd1 vccd1 vccd1 sky130_fd_sc_hd__fill_1
XFILLER_0_41_237 vccd1 vssd1 vccd1 vssd1 sky130_ef_sc_hd__decap_12
Xfanout309 _0038_ vssd1 vssd1 vccd1 vccd1 net309 sky130_fd_sc_hd__buf_1
XFILLER_0_49_337 vssd1 vssd1 vccd1 vccd1 sky130_fd_sc_hd__decap_4
XFILLER_0_27_83 vssd1 vssd1 vccd1 vccd1 sky130_fd_sc_hd__fill_1
XTAP_TAPCELL_ROW_52_427 vssd1 vccd1 sky130_fd_sc_hd__tapvpwrvgnd_1
XFILLER_0_2_109 vccd1 vssd1 vccd1 vssd1 sky130_ef_sc_hd__decap_12
XFILLER_0_48_27 vssd1 vssd1 vccd1 vccd1 sky130_fd_sc_hd__fill_1
XFILLER_0_31_281 vccd1 vssd1 vccd1 vssd1 sky130_ef_sc_hd__decap_12
XFILLER_0_13_74 vssd1 vssd1 vccd1 vccd1 sky130_fd_sc_hd__decap_4
XFILLER_0_13_85 vssd1 vssd1 vccd1 vccd1 sky130_fd_sc_hd__fill_1
X_0984_ net246 net120 _0282_ _0295_ vssd1 vssd1 vccd1 vccd1 _0296_ sky130_fd_sc_hd__or4_1
XFILLER_0_14_248 vssd1 vssd1 vccd1 vccd1 sky130_fd_sc_hd__decap_4
X_1398_ clknet_2_1__leaf_clk0 _0016_ vssd1 vssd1 vccd1 vccd1 net17 sky130_fd_sc_hd__dfxtp_1
Xfanout128 _0210_ vssd1 vssd1 vccd1 vccd1 net128 sky130_fd_sc_hd__buf_1
Xfanout139 net140 vssd1 vssd1 vccd1 vccd1 net139 sky130_fd_sc_hd__buf_1
Xfanout117 net118 vssd1 vssd1 vccd1 vccd1 net117 sky130_fd_sc_hd__clkbuf_1
Xfanout106 _0229_ vssd1 vssd1 vccd1 vccd1 net106 sky130_fd_sc_hd__clkbuf_2
XFILLER_0_49_178 vssd1 vssd1 vccd1 vccd1 sky130_fd_sc_hd__fill_1
XFILLER_0_9_220 vssd1 vssd1 vccd1 vccd1 sky130_fd_sc_hd__decap_4
XPHY_EDGE_ROW_19_Left_73 vssd1 vssd1 vccd1 vccd1 sky130_fd_sc_hd__decap_3
XFILLER_0_13_281 vccd1 vssd1 vccd1 vssd1 sky130_ef_sc_hd__decap_12
XTAP_TAPCELL_ROW_28_287 vssd1 vccd1 sky130_fd_sc_hd__tapvpwrvgnd_1
XFILLER_0_28_318 vssd1 vssd1 vccd1 vccd1 sky130_fd_sc_hd__fill_1
XFILLER_0_51_332 vssd1 vssd1 vccd1 vccd1 sky130_fd_sc_hd__decap_4
X_1252_ _0147_ net79 net78 _0547_ vssd1 vssd1 vccd1 vccd1 _0548_ sky130_fd_sc_hd__or4_1
X_1321_ _0069_ net180 net67 vssd1 vssd1 vccd1 vccd1 _0611_ sky130_fd_sc_hd__or3_1
X_1183_ _0075_ _0103_ _0113_ vssd1 vssd1 vccd1 vccd1 _0484_ sky130_fd_sc_hd__or3_1
XTAP_TAPCELL_ROW_19_232 vssd1 vccd1 sky130_fd_sc_hd__tapvpwrvgnd_1
XFILLER_0_46_126 vccd1 vssd1 vccd1 vssd1 sky130_ef_sc_hd__decap_12
XFILLER_0_40_83 vssd1 vssd1 vccd1 vccd1 sky130_fd_sc_hd__fill_1
XFILLER_0_6_289 vccd1 vssd1 vccd1 vssd1 sky130_ef_sc_hd__decap_12
X_0967_ net285 net208 vssd1 vssd1 vccd1 vccd1 _0279_ sky130_fd_sc_hd__or2_1
XFILLER_0_49_81 vccd1 vssd1 vccd1 vssd1 sky130_ef_sc_hd__decap_12
X_0898_ net454 net345 net338 net447 vssd1 vssd1 vccd1 vccd1 _0210_ sky130_fd_sc_hd__a22o_1
XPHY_EDGE_ROW_12_Right_12 vssd1 vssd1 vccd1 vccd1 sky130_fd_sc_hd__decap_3
XFILLER_0_4_83 vssd1 vssd1 vccd1 vccd1 sky130_fd_sc_hd__fill_1
XPHY_EDGE_ROW_21_Right_21 vssd1 vssd1 vccd1 vccd1 sky130_fd_sc_hd__decap_3
XFILLER_0_37_148 vssd1 vssd1 vccd1 vccd1 sky130_fd_sc_hd__decap_3
XTAP_TAPCELL_ROW_25_268 vssd1 vccd1 sky130_fd_sc_hd__tapvpwrvgnd_1
XPHY_EDGE_ROW_4_Left_58 vssd1 vssd1 vccd1 vccd1 sky130_fd_sc_hd__decap_3
XPHY_EDGE_ROW_30_Right_30 vssd1 vssd1 vccd1 vccd1 sky130_fd_sc_hd__decap_3
Xfanout470 net471 vssd1 vssd1 vccd1 vccd1 net470 sky130_fd_sc_hd__buf_1
Xfanout481 _0680_ vssd1 vssd1 vccd1 vccd1 net481 sky130_fd_sc_hd__buf_1
Xfanout492 net493 vssd1 vssd1 vccd1 vccd1 net492 sky130_fd_sc_hd__buf_1
XTAP_TAPCELL_ROW_16_213 vssd1 vccd1 sky130_fd_sc_hd__tapvpwrvgnd_1
XFILLER_0_43_118 vccd1 vssd1 vccd1 vssd1 sky130_ef_sc_hd__decap_12
X_0821_ net497 net394 net388 net503 vssd1 vssd1 vccd1 vccd1 _0133_ sky130_fd_sc_hd__a22o_1
X_0752_ net287 net285 vssd1 vssd1 vccd1 vccd1 _0064_ sky130_fd_sc_hd__or2_1
XFILLER_0_51_195 vssd1 vssd1 vccd1 vccd1 sky130_fd_sc_hd__fill_1
XFILLER_0_3_248 vccd1 vssd1 vccd1 vssd1 sky130_ef_sc_hd__decap_12
X_1166_ _0123_ _0171_ _0412_ _0467_ vssd1 vssd1 vccd1 vccd1 _0468_ sky130_fd_sc_hd__or4_1
XTAP_TAPCELL_ROW_39_349 vssd1 vccd1 sky130_fd_sc_hd__tapvpwrvgnd_1
XFILLER_0_29_6 vssd1 vssd1 vccd1 vccd1 sky130_fd_sc_hd__decap_4
X_1235_ _0475_ _0520_ _0521_ _0531_ vssd1 vssd1 vccd1 vccd1 _0532_ sky130_fd_sc_hd__or4_1
X_1304_ net232 net226 net222 net152 vssd1 vssd1 vccd1 vccd1 _0596_ sky130_fd_sc_hd__or4_1
X_1097_ net88 net86 net83 vssd1 vssd1 vccd1 vccd1 _0403_ sky130_fd_sc_hd__or3_1
XFILLER_0_19_137 vssd1 vssd1 vccd1 vccd1 sky130_fd_sc_hd__fill_1
XTAP_TAPCELL_ROW_22_249 vssd1 vccd1 sky130_fd_sc_hd__tapvpwrvgnd_1
XFILLER_0_51_93 vccd1 vssd1 vccd1 vssd1 sky130_ef_sc_hd__decap_12
XFILLER_0_34_118 vccd1 vssd1 vccd1 vssd1 sky130_ef_sc_hd__decap_12
XFILLER_0_33_140 vssd1 vssd1 vccd1 vccd1 sky130_fd_sc_hd__decap_8
X_1020_ _0190_ _0243_ vssd1 vssd1 vccd1 vccd1 _0330_ sky130_fd_sc_hd__or2_1
XFILLER_0_24_195 vssd1 vssd1 vccd1 vccd1 sky130_fd_sc_hd__fill_1
X_0804_ net580 net560 net566 net573 vssd1 vssd1 vccd1 vccd1 _0116_ sky130_fd_sc_hd__nor4b_1
X_0735_ net304 net298 vssd1 vssd1 vccd1 vccd1 _0047_ sky130_fd_sc_hd__or2_1
X_1218_ net233 net113 _0246_ _0515_ vssd1 vssd1 vccd1 vccd1 _0516_ sky130_fd_sc_hd__or4_1
XFILLER_0_27_3 vccd1 vssd1 vccd1 vssd1 sky130_ef_sc_hd__decap_12
XFILLER_0_1_51 vssd1 vssd1 vccd1 vccd1 sky130_fd_sc_hd__decap_4
X_1149_ _0240_ _0270_ _0445_ _0451_ vssd1 vssd1 vccd1 vccd1 _0452_ sky130_fd_sc_hd__or4_1
XFILLER_0_47_232 vccd1 vssd1 vccd1 vssd1 sky130_ef_sc_hd__decap_12
XFILLER_0_30_176 vccd1 vssd1 vccd1 vssd1 sky130_ef_sc_hd__decap_12
XFILLER_0_15_140 vccd1 vssd1 vccd1 vssd1 sky130_ef_sc_hd__decap_12
Xhold31 net18 vssd1 vssd1 vccd1 vccd1 net646 sky130_fd_sc_hd__dlygate4sd3_1
Xhold20 net28 vssd1 vssd1 vccd1 vccd1 net635 sky130_fd_sc_hd__dlygate4sd3_1
XFILLER_0_38_265 vssd1 vssd1 vccd1 vccd1 sky130_fd_sc_hd__decap_8
XFILLER_0_53_268 vssd1 vssd1 vccd1 vccd1 sky130_fd_sc_hd__fill_1
XANTENNA_6 _0140_ vssd1 vssd1 vccd1 vccd1 sky130_fd_sc_hd__diode_2
XPHY_EDGE_ROW_7_Left_61 vssd1 vssd1 vccd1 vccd1 sky130_fd_sc_hd__decap_3
XFILLER_0_6_29 vccd1 vssd1 vccd1 vssd1 sky130_ef_sc_hd__decap_12
XFILLER_0_21_187 vssd1 vssd1 vccd1 vccd1 sky130_fd_sc_hd__decap_8
XTAP_TAPCELL_ROW_49_411 vssd1 vccd1 sky130_fd_sc_hd__tapvpwrvgnd_1
X_1003_ _0192_ _0199_ _0250_ net60 vssd1 vssd1 vccd1 vccd1 _0314_ sky130_fd_sc_hd__or4_1
XFILLER_0_16_85 vssd1 vssd1 vccd1 vccd1 sky130_fd_sc_hd__fill_2
XFILLER_0_44_213 vccd1 vssd1 vccd1 vssd1 sky130_ef_sc_hd__decap_12
XTAP_TAPCELL_ROW_32_311 vssd1 vccd1 sky130_fd_sc_hd__tapvpwrvgnd_1
XFILLER_0_29_287 vssd1 vssd1 vccd1 vccd1 sky130_fd_sc_hd__decap_3
XFILLER_0_8_159 vssd1 vssd1 vccd1 vccd1 sky130_fd_sc_hd__fill_1
XFILLER_0_4_321 vccd1 vssd1 vccd1 vssd1 sky130_ef_sc_hd__decap_12
XPHY_EDGE_ROW_6_Right_6 vssd1 vssd1 vccd1 vccd1 sky130_fd_sc_hd__decap_3
X_0718_ net531 net450 net443 net518 vssd1 vssd1 vccd1 vccd1 _0690_ sky130_fd_sc_hd__a22o_1
XFILLER_0_12_132 vssd1 vssd1 vccd1 vccd1 sky130_fd_sc_hd__decap_8
XFILLER_0_12_154 vssd1 vssd1 vccd1 vccd1 sky130_fd_sc_hd__decap_8
XFILLER_0_50_238 vssd1 vssd1 vccd1 vccd1 sky130_fd_sc_hd__fill_2
XFILLER_0_7_192 vssd1 vssd1 vccd1 vccd1 sky130_fd_sc_hd__decap_6
Xoutput21 net21 vssd1 vssd1 vccd1 vccd1 dout0[1] sky130_fd_sc_hd__buf_2
XPHY_EDGE_ROW_33_Left_87 vssd1 vssd1 vccd1 vccd1 sky130_fd_sc_hd__decap_3
Xoutput10 net10 vssd1 vssd1 vccd1 vccd1 dout0[0] sky130_fd_sc_hd__buf_2
Xoutput32 net32 vssd1 vssd1 vccd1 vccd1 dout0[2] sky130_fd_sc_hd__buf_2
XFILLER_0_41_249 vccd1 vssd1 vccd1 vssd1 sky130_ef_sc_hd__decap_12
XFILLER_0_41_216 vssd1 vssd1 vccd1 vccd1 sky130_fd_sc_hd__decap_8
XFILLER_0_26_279 vssd1 vssd1 vccd1 vccd1 sky130_fd_sc_hd__decap_8
XFILLER_0_1_335 vssd1 vssd1 vccd1 vccd1 sky130_fd_sc_hd__fill_1
XTAP_TAPCELL_ROW_52_428 vssd1 vccd1 sky130_fd_sc_hd__tapvpwrvgnd_1
XFILLER_0_49_305 vccd1 vssd1 vccd1 vssd1 sky130_ef_sc_hd__decap_12
XFILLER_0_43_83 vssd1 vssd1 vccd1 vccd1 sky130_fd_sc_hd__decap_4
XFILLER_0_32_238 vccd1 vssd1 vccd1 vssd1 sky130_ef_sc_hd__decap_12
XFILLER_0_17_268 vssd1 vssd1 vccd1 vccd1 sky130_fd_sc_hd__decap_6
XFILLER_0_31_271 vssd1 vssd1 vccd1 vccd1 sky130_fd_sc_hd__decap_8
XFILLER_0_31_293 vssd1 vssd1 vccd1 vccd1 sky130_fd_sc_hd__decap_8
X_0983_ net187 net183 net173 net168 vssd1 vssd1 vccd1 vccd1 _0295_ sky130_fd_sc_hd__or4_1
Xfanout129 net131 vssd1 vssd1 vccd1 vccd1 net129 sky130_fd_sc_hd__buf_1
Xfanout118 _0223_ vssd1 vssd1 vccd1 vccd1 net118 sky130_fd_sc_hd__buf_1
Xfanout107 net109 vssd1 vssd1 vccd1 vccd1 net107 sky130_fd_sc_hd__buf_1
X_1397_ clknet_2_2__leaf_clk0 _0015_ vssd1 vssd1 vccd1 vccd1 net16 sky130_fd_sc_hd__dfxtp_1
XFILLER_0_49_124 vssd1 vssd1 vccd1 vccd1 sky130_fd_sc_hd__fill_1
XFILLER_0_9_254 vccd1 vssd1 vccd1 vssd1 sky130_ef_sc_hd__decap_12
XFILLER_0_9_276 vssd1 vssd1 vccd1 vccd1 sky130_fd_sc_hd__decap_4
XFILLER_0_45_341 vssd1 vssd1 vccd1 vccd1 sky130_fd_sc_hd__fill_1
XFILLER_0_13_293 vccd1 vssd1 vccd1 vssd1 sky130_ef_sc_hd__decap_12
XFILLER_0_50_29 vccd1 vssd1 vccd1 vssd1 sky130_ef_sc_hd__decap_12
XPHY_EDGE_ROW_36_Left_90 vssd1 vssd1 vccd1 vccd1 sky130_fd_sc_hd__decap_3
X_1320_ _0180_ _0199_ _0204_ _0304_ vssd1 vssd1 vccd1 vccd1 _0610_ sky130_fd_sc_hd__or4_1
X_1251_ net137 net113 net110 net104 vssd1 vssd1 vccd1 vccd1 _0547_ sky130_fd_sc_hd__or4_1
X_1182_ _0080_ net259 net199 _0482_ vssd1 vssd1 vccd1 vccd1 _0483_ sky130_fd_sc_hd__or4_1
XFILLER_0_46_138 vssd1 vssd1 vccd1 vccd1 sky130_fd_sc_hd__fill_2
XPHY_EDGE_ROW_20_Left_74 vssd1 vssd1 vccd1 vccd1 sky130_fd_sc_hd__decap_3
XTAP_TAPCELL_ROW_19_233 vssd1 vccd1 sky130_fd_sc_hd__tapvpwrvgnd_1
X_0897_ net486 net344 net339 net479 vssd1 vssd1 vccd1 vccd1 _0209_ sky130_fd_sc_hd__a22o_1
XFILLER_0_42_300 vssd1 vssd1 vccd1 vccd1 sky130_fd_sc_hd__decap_8
X_0966_ _0164_ _0277_ vssd1 vssd1 vccd1 vccd1 _0278_ sky130_fd_sc_hd__or2_1
XFILLER_0_27_341 vssd1 vssd1 vccd1 vccd1 sky130_fd_sc_hd__fill_1
XFILLER_0_6_235 vccd1 vssd1 vccd1 vssd1 sky130_ef_sc_hd__decap_12
XFILLER_0_6_213 vssd1 vssd1 vccd1 vccd1 sky130_fd_sc_hd__fill_1
XFILLER_0_49_93 vssd1 vssd1 vccd1 vccd1 sky130_fd_sc_hd__fill_2
XTAP_TAPCELL_ROW_25_269 vssd1 vccd1 sky130_fd_sc_hd__tapvpwrvgnd_1
XFILLER_0_45_182 vssd1 vssd1 vccd1 vccd1 sky130_fd_sc_hd__decap_8
Xfanout471 net472 vssd1 vssd1 vccd1 vccd1 net471 sky130_fd_sc_hd__clkbuf_1
Xfanout460 net461 vssd1 vssd1 vccd1 vccd1 net460 sky130_fd_sc_hd__buf_1
Xfanout482 net483 vssd1 vssd1 vccd1 vccd1 net482 sky130_fd_sc_hd__buf_1
Xfanout493 net494 vssd1 vssd1 vccd1 vccd1 net493 sky130_fd_sc_hd__clkbuf_1
XTAP_TAPCELL_ROW_16_214 vssd1 vccd1 sky130_fd_sc_hd__tapvpwrvgnd_1
X_0751_ net509 net426 net420 net516 vssd1 vssd1 vccd1 vccd1 _0063_ sky130_fd_sc_hd__a22o_1
XFILLER_0_28_149 vssd1 vssd1 vccd1 vccd1 sky130_fd_sc_hd__fill_1
X_0820_ net437 net367 net361 net429 vssd1 vssd1 vccd1 vccd1 _0132_ sky130_fd_sc_hd__a22o_1
XFILLER_0_10_54 vssd1 vssd1 vccd1 vccd1 sky130_fd_sc_hd__decap_4
X_1303_ _0299_ _0460_ _0593_ _0594_ vssd1 vssd1 vccd1 vccd1 _0595_ sky130_fd_sc_hd__or4_1
X_1096_ net172 net167 net159 net155 vssd1 vssd1 vccd1 vccd1 _0402_ sky130_fd_sc_hd__or4_1
X_1234_ net212 net204 _0181_ _0530_ vssd1 vssd1 vccd1 vccd1 _0531_ sky130_fd_sc_hd__or4_1
X_1165_ net320 net223 net97 net73 vssd1 vssd1 vccd1 vccd1 _0467_ sky130_fd_sc_hd__or4_1
X_0949_ net447 net427 net419 net454 vssd1 vssd1 vccd1 vccd1 _0261_ sky130_fd_sc_hd__a22o_1
XFILLER_0_42_174 vssd1 vssd1 vccd1 vccd1 sky130_fd_sc_hd__decap_3
XFILLER_0_42_152 vssd1 vssd1 vccd1 vccd1 sky130_fd_sc_hd__decap_3
XTAP_TAPCELL_ROW_30_294 vssd1 vccd1 sky130_fd_sc_hd__tapvpwrvgnd_1
XFILLER_0_33_130 vssd1 vssd1 vccd1 vccd1 sky130_fd_sc_hd__decap_4
Xfanout290 net291 vssd1 vssd1 vccd1 vccd1 net290 sky130_fd_sc_hd__buf_1
X_0803_ _0107_ net63 _0113_ vssd1 vssd1 vccd1 vccd1 _0115_ sky130_fd_sc_hd__or3_1
XFILLER_0_24_141 vssd1 vssd1 vccd1 vccd1 sky130_fd_sc_hd__decap_8
X_0734_ net521 net483 net476 net533 vssd1 vssd1 vccd1 vccd1 _0046_ sky130_fd_sc_hd__a22o_1
XFILLER_0_21_64 vssd1 vssd1 vccd1 vccd1 sky130_fd_sc_hd__fill_1
XFILLER_0_41_6 vssd1 vssd1 vccd1 vccd1 sky130_fd_sc_hd__decap_4
XFILLER_0_46_94 vccd1 vssd1 vccd1 vssd1 sky130_ef_sc_hd__decap_12
X_1217_ net265 net153 net145 vssd1 vssd1 vccd1 vccd1 _0515_ sky130_fd_sc_hd__or3_1
X_1148_ net275 net107 net92 _0450_ vssd1 vssd1 vccd1 vccd1 _0451_ sky130_fd_sc_hd__or4_1
X_1079_ net236 net120 net81 net80 vssd1 vssd1 vccd1 vccd1 _0386_ sky130_fd_sc_hd__or4_1
XFILLER_0_47_288 vccd1 vssd1 vccd1 vssd1 sky130_ef_sc_hd__decap_12
XFILLER_0_47_244 vssd1 vssd1 vccd1 vccd1 sky130_fd_sc_hd__decap_6
XFILLER_0_7_341 vssd1 vssd1 vccd1 vccd1 sky130_fd_sc_hd__fill_1
XFILLER_0_15_152 vssd1 vssd1 vccd1 vccd1 sky130_fd_sc_hd__decap_6
XFILLER_0_30_188 vssd1 vssd1 vccd1 vccd1 sky130_fd_sc_hd__fill_1
XFILLER_0_30_155 vccd1 vssd1 vccd1 vssd1 sky130_ef_sc_hd__decap_12
XFILLER_0_30_122 vssd1 vssd1 vccd1 vccd1 sky130_fd_sc_hd__decap_8
Xhold10 net30 vssd1 vssd1 vccd1 vccd1 net625 sky130_fd_sc_hd__dlygate4sd3_1
Xhold21 net19 vssd1 vssd1 vccd1 vccd1 net636 sky130_fd_sc_hd__dlygate4sd3_1
XPHY_EDGE_ROW_51_Left_105 vssd1 vssd1 vccd1 vccd1 sky130_fd_sc_hd__decap_3
XFILLER_0_38_299 vssd1 vssd1 vccd1 vccd1 sky130_fd_sc_hd__fill_1
XANTENNA_7 _0160_ vssd1 vssd1 vccd1 vccd1 sky130_fd_sc_hd__diode_2
XTAP_TAPCELL_ROW_49_412 vssd1 vccd1 sky130_fd_sc_hd__tapvpwrvgnd_1
XFILLER_0_21_166 vssd1 vssd1 vccd1 vccd1 sky130_fd_sc_hd__fill_2
X_1002_ _0277_ _0309_ _0310_ _0312_ vssd1 vssd1 vccd1 vccd1 _0313_ sky130_fd_sc_hd__or4_1
XFILLER_0_29_200 vccd1 vssd1 vccd1 vssd1 sky130_ef_sc_hd__decap_12
XFILLER_0_44_225 vssd1 vssd1 vccd1 vccd1 sky130_fd_sc_hd__decap_3
XFILLER_0_32_85 vssd1 vssd1 vccd1 vccd1 sky130_fd_sc_hd__fill_2
XFILLER_0_32_41 vssd1 vssd1 vccd1 vccd1 sky130_fd_sc_hd__fill_2
XFILLER_0_4_333 vssd1 vssd1 vccd1 vccd1 sky130_fd_sc_hd__decap_8
X_0717_ net589 net597 net603 net613 vssd1 vssd1 vccd1 vccd1 _0689_ sky130_fd_sc_hd__and4bb_1
XFILLER_0_50_228 vssd1 vssd1 vccd1 vccd1 sky130_fd_sc_hd__decap_3
Xoutput11 net11 vssd1 vssd1 vccd1 vccd1 dout0[10] sky130_fd_sc_hd__clkbuf_4
Xoutput22 net22 vssd1 vssd1 vccd1 vccd1 dout0[20] sky130_fd_sc_hd__clkbuf_4
Xoutput33 net33 vssd1 vssd1 vccd1 vccd1 dout0[30] sky130_fd_sc_hd__buf_2
XFILLER_0_9_3 vccd1 vssd1 vccd1 vssd1 sky130_ef_sc_hd__decap_12
XFILLER_0_53_29 vccd1 vssd1 vccd1 vssd1 sky130_ef_sc_hd__decap_12
XFILLER_0_26_247 vssd1 vssd1 vccd1 vccd1 sky130_fd_sc_hd__decap_4
XFILLER_0_27_41 vccd1 vssd1 vccd1 vssd1 sky130_ef_sc_hd__decap_12
XTAP_TAPCELL_ROW_52_429 vssd1 vccd1 sky130_fd_sc_hd__tapvpwrvgnd_1
XFILLER_0_49_317 vccd1 vssd1 vccd1 vssd1 sky130_ef_sc_hd__decap_12
XFILLER_0_43_95 vssd1 vssd1 vccd1 vccd1 sky130_fd_sc_hd__decap_8
XFILLER_0_4_141 vccd1 vssd1 vccd1 vssd1 sky130_ef_sc_hd__decap_12
XFILLER_0_40_261 vssd1 vssd1 vccd1 vccd1 sky130_fd_sc_hd__fill_2
XFILLER_0_48_29 vccd1 vssd1 vccd1 vssd1 sky130_ef_sc_hd__decap_12
XFILLER_0_23_228 vssd1 vssd1 vccd1 vccd1 sky130_fd_sc_hd__decap_6
XTAP_TAPCELL_ROW_8_162 vssd1 vccd1 sky130_fd_sc_hd__tapvpwrvgnd_1
XFILLER_0_14_217 vssd1 vssd1 vccd1 vccd1 sky130_fd_sc_hd__decap_8
X_0982_ _0180_ _0279_ _0280_ _0281_ vssd1 vssd1 vccd1 vccd1 _0294_ sky130_fd_sc_hd__or4_1
XFILLER_0_1_111 vssd1 vssd1 vccd1 vccd1 sky130_fd_sc_hd__fill_1
Xfanout119 net120 vssd1 vssd1 vccd1 vccd1 net119 sky130_fd_sc_hd__buf_1
Xfanout108 net109 vssd1 vssd1 vccd1 vccd1 net108 sky130_fd_sc_hd__clkbuf_1
XFILLER_0_22_250 vssd1 vssd1 vccd1 vccd1 sky130_fd_sc_hd__fill_2
XFILLER_0_38_73 vssd1 vssd1 vccd1 vccd1 sky130_fd_sc_hd__decap_8
X_1396_ clknet_2_3__leaf_clk0 _0014_ vssd1 vssd1 vccd1 vccd1 net15 sky130_fd_sc_hd__dfxtp_1
XFILLER_0_9_266 vssd1 vssd1 vccd1 vccd1 sky130_fd_sc_hd__decap_4
XFILLER_0_20_209 vccd1 vssd1 vccd1 vssd1 sky130_ef_sc_hd__decap_12
XFILLER_0_48_191 vssd1 vssd1 vccd1 vccd1 sky130_fd_sc_hd__decap_4
X_1250_ net286 net210 _0253_ _0536_ vssd1 vssd1 vccd1 vccd1 _0546_ sky130_fd_sc_hd__or4_1
X_1181_ net210 net176 net129 net124 vssd1 vssd1 vccd1 vccd1 _0482_ sky130_fd_sc_hd__or4_1
XFILLER_0_46_106 vccd1 vssd1 vccd1 vssd1 sky130_ef_sc_hd__decap_12
X_0965_ net130 net128 net126 vssd1 vssd1 vccd1 vccd1 _0277_ sky130_fd_sc_hd__or3_2
X_0896_ net138 net136 net134 net133 vssd1 vssd1 vccd1 vccd1 _0208_ sky130_fd_sc_hd__or4_2
XFILLER_0_6_247 vssd1 vssd1 vccd1 vccd1 sky130_fd_sc_hd__decap_4
XFILLER_0_10_220 vccd1 vssd1 vccd1 vssd1 sky130_ef_sc_hd__decap_12
XFILLER_0_4_85 vccd1 vssd1 vccd1 vssd1 sky130_ef_sc_hd__decap_12
XFILLER_0_4_41 vccd1 vssd1 vccd1 vssd1 sky130_ef_sc_hd__decap_12
X_1379_ _0130_ net203 net201 _0218_ vssd1 vssd1 vccd1 vccd1 _0667_ sky130_fd_sc_hd__or4_1
XFILLER_0_37_106 vssd1 vssd1 vccd1 vccd1 sky130_fd_sc_hd__decap_3
XFILLER_0_52_109 vccd1 vssd1 vccd1 vssd1 sky130_ef_sc_hd__decap_12
XFILLER_0_37_128 vssd1 vssd1 vccd1 vccd1 sky130_fd_sc_hd__fill_2
Xfanout472 net473 vssd1 vssd1 vccd1 vccd1 net472 sky130_fd_sc_hd__buf_1
Xfanout483 net484 vssd1 vssd1 vccd1 vccd1 net483 sky130_fd_sc_hd__buf_1
Xfanout450 net452 vssd1 vssd1 vccd1 vccd1 net450 sky130_fd_sc_hd__buf_1
Xfanout461 net466 vssd1 vssd1 vccd1 vccd1 net461 sky130_fd_sc_hd__buf_1
Xfanout494 net496 vssd1 vssd1 vccd1 vccd1 net494 sky130_fd_sc_hd__clkbuf_1
XTAP_TAPCELL_ROW_16_215 vssd1 vccd1 sky130_fd_sc_hd__tapvpwrvgnd_1
XFILLER_0_36_150 vssd1 vssd1 vccd1 vccd1 sky130_fd_sc_hd__decap_8
X_0750_ net491 net423 net416 net499 vssd1 vssd1 vccd1 vccd1 _0062_ sky130_fd_sc_hd__a22o_1
Xfanout90 _0245_ vssd1 vssd1 vccd1 vccd1 net90 sky130_fd_sc_hd__buf_1
X_1302_ _0064_ _0148_ _0326_ _0348_ vssd1 vssd1 vccd1 vccd1 _0594_ sky130_fd_sc_hd__or4_1
X_1233_ net251 net244 net237 net235 vssd1 vssd1 vccd1 vccd1 _0530_ sky130_fd_sc_hd__or4_1
XFILLER_0_35_85 vccd1 vssd1 vccd1 vssd1 sky130_ef_sc_hd__decap_12
X_1164_ _0462_ _0463_ _0464_ _0465_ vssd1 vssd1 vccd1 vccd1 _0466_ sky130_fd_sc_hd__or4_1
X_1095_ _0221_ _0237_ _0399_ _0400_ vssd1 vssd1 vccd1 vccd1 _0401_ sky130_fd_sc_hd__or4_1
XFILLER_0_51_51 vssd1 vssd1 vccd1 vccd1 sky130_fd_sc_hd__decap_4
X_0948_ net429 net425 net418 net436 vssd1 vssd1 vccd1 vccd1 _0260_ sky130_fd_sc_hd__a22o_1
XFILLER_0_42_197 vssd1 vssd1 vccd1 vccd1 sky130_fd_sc_hd__decap_6
XTAP_TAPCELL_ROW_30_295 vssd1 vccd1 sky130_fd_sc_hd__tapvpwrvgnd_1
X_0879_ net150 net148 net146 vssd1 vssd1 vccd1 vccd1 _0191_ sky130_fd_sc_hd__or3_1
XFILLER_0_0_209 vccd1 vssd1 vccd1 vssd1 sky130_ef_sc_hd__decap_12
XTAP_TAPCELL_ROW_21_240 vssd1 vccd1 sky130_fd_sc_hd__tapvpwrvgnd_1
XFILLER_0_21_337 vssd1 vssd1 vccd1 vccd1 sky130_fd_sc_hd__fill_1
Xfanout280 net281 vssd1 vssd1 vccd1 vccd1 net280 sky130_fd_sc_hd__buf_1
Xfanout291 _0056_ vssd1 vssd1 vccd1 vccd1 net291 sky130_fd_sc_hd__clkbuf_2
X_0802_ net240 _0112_ vssd1 vssd1 vccd1 vccd1 _0114_ sky130_fd_sc_hd__or2_2
XFILLER_0_8_309 vccd1 vssd1 vccd1 vssd1 sky130_ef_sc_hd__decap_12
XFILLER_0_24_197 vssd1 vssd1 vccd1 vccd1 sky130_fd_sc_hd__decap_8
X_0733_ net520 net467 net459 net532 vssd1 vssd1 vccd1 vccd1 _0045_ sky130_fd_sc_hd__a22o_1