*SPEF "ieee 1481-1999"
*DESIGN "cust_rom1"
*DATE "07:04:47 Monday September 30, 2024"
*VENDOR "The OpenROAD Project"
*PROGRAM "OpenROAD"
*VERSION "b16bda7e82721d10566ff7e2b68f1ff0be9f9e38"
*DESIGN_FLOW "NAME_SCOPE LOCAL" "PIN_CAP NONE"
*DIVIDER /
*DELIMITER :
*BUS_DELIMITER []
*T_UNIT 1 NS
*C_UNIT 1 PF
*R_UNIT 1 OHM
*L_UNIT 1 HENRY

*NAME_MAP
*1 addr0[0]
*2 addr0[1]
*3 addr0[2]
*4 addr0[3]
*5 addr0[4]
*6 addr0[5]
*7 addr0[6]
*8 addr0[7]
*9 clk0
*10 cs0
*11 dout0[0]
*12 dout0[10]
*13 dout0[11]
*14 dout0[12]
*15 dout0[13]
*16 dout0[14]
*17 dout0[15]
*18 dout0[16]
*19 dout0[17]
*20 dout0[18]
*21 dout0[19]
*22 dout0[1]
*23 dout0[20]
*24 dout0[21]
*25 dout0[22]
*26 dout0[23]
*27 dout0[24]
*28 dout0[25]
*29 dout0[26]
*30 dout0[27]
*31 dout0[28]
*32 dout0[29]
*33 dout0[2]
*34 dout0[30]
*35 dout0[31]
*36 dout0[3]
*37 dout0[4]
*38 dout0[5]
*39 dout0[6]
*40 dout0[7]
*41 dout0[8]
*42 dout0[9]
*45 _0000_
*46 _0001_
*47 _0002_
*48 _0003_
*49 _0004_
*50 _0005_
*51 _0006_
*52 _0007_
*53 _0008_
*54 _0009_
*55 _0010_
*56 _0011_
*57 _0012_
*58 _0013_
*59 _0014_
*60 _0015_
*61 _0016_
*62 _0017_
*63 _0018_
*64 _0019_
*65 _0020_
*66 _0021_
*67 _0022_
*68 _0023_
*69 _0024_
*70 _0025_
*71 _0026_
*72 _0027_
*73 _0028_
*74 _0029_
*75 _0030_
*76 _0031_
*77 _0032_
*78 _0033_
*79 _0034_
*80 _0035_
*81 _0036_
*82 _0037_
*83 _0038_
*84 _0039_
*85 _0040_
*86 _0041_
*87 _0042_
*88 _0043_
*89 _0044_
*90 _0045_
*91 _0046_
*92 _0047_
*93 _0048_
*94 _0049_
*95 _0050_
*96 _0051_
*97 _0052_
*98 _0053_
*99 _0054_
*100 _0055_
*101 _0056_
*102 _0057_
*103 _0058_
*104 _0059_
*105 _0060_
*106 _0061_
*107 _0062_
*108 _0063_
*109 _0064_
*110 _0065_
*111 _0066_
*112 _0067_
*113 _0068_
*114 _0069_
*115 _0070_
*116 _0071_
*117 _0072_
*118 _0073_
*119 _0074_
*120 _0075_
*121 _0076_
*122 _0077_
*123 _0078_
*124 _0079_
*125 _0080_
*126 _0081_
*127 _0082_
*128 _0083_
*129 _0084_
*130 _0085_
*131 _0086_
*132 _0087_
*133 _0088_
*134 _0089_
*135 _0090_
*136 _0091_
*137 _0092_
*138 _0093_
*139 _0094_
*140 _0095_
*141 _0096_
*142 _0097_
*143 _0098_
*144 _0099_
*145 _0100_
*146 _0101_
*147 _0102_
*148 _0103_
*149 _0104_
*150 _0105_
*151 _0106_
*152 _0107_
*153 _0108_
*154 _0109_
*155 _0110_
*156 _0111_
*157 _0112_
*158 _0113_
*159 _0114_
*160 _0115_
*161 _0116_
*162 _0117_
*163 _0118_
*164 _0119_
*165 _0120_
*166 _0121_
*167 _0122_
*168 _0123_
*169 _0124_
*170 _0125_
*171 _0126_
*172 _0127_
*173 _0128_
*174 _0129_
*175 _0130_
*176 _0131_
*177 _0132_
*178 _0133_
*179 _0134_
*180 _0135_
*181 _0136_
*182 _0137_
*183 _0138_
*184 _0139_
*185 _0140_
*186 _0141_
*187 _0142_
*188 _0143_
*189 _0144_
*190 _0145_
*191 _0146_
*192 _0147_
*193 _0148_
*194 _0149_
*195 _0150_
*196 _0151_
*197 _0152_
*198 _0153_
*199 _0154_
*200 _0155_
*201 _0156_
*202 _0157_
*203 _0158_
*204 _0159_
*205 _0160_
*206 _0161_
*207 _0162_
*208 _0163_
*209 _0164_
*210 _0165_
*211 _0166_
*212 _0167_
*213 _0168_
*214 _0169_
*215 _0170_
*216 _0171_
*217 _0172_
*218 _0173_
*219 _0174_
*220 _0175_
*221 _0176_
*222 _0177_
*223 _0178_
*224 _0179_
*225 _0180_
*226 _0181_
*227 _0182_
*228 _0183_
*229 _0184_
*230 _0185_
*231 _0186_
*232 _0187_
*233 _0188_
*234 _0189_
*235 _0190_
*236 _0191_
*237 _0192_
*238 _0193_
*239 _0194_
*240 _0195_
*241 _0196_
*242 _0197_
*243 _0198_
*244 _0199_
*245 _0200_
*246 _0201_
*247 _0202_
*248 _0203_
*249 _0204_
*250 _0205_
*251 _0206_
*252 _0207_
*253 _0208_
*254 _0209_
*255 _0210_
*256 _0211_
*257 _0212_
*258 _0213_
*259 _0214_
*260 _0215_
*261 _0216_
*262 _0217_
*263 _0218_
*264 _0219_
*265 _0220_
*266 _0221_
*267 _0222_
*268 _0223_
*269 _0224_
*270 _0225_
*271 _0226_
*272 _0227_
*273 _0228_
*274 _0229_
*275 _0230_
*276 _0231_
*277 _0232_
*278 _0233_
*279 _0234_
*280 _0235_
*281 _0236_
*282 _0237_
*283 _0238_
*284 _0239_
*285 _0240_
*286 _0241_
*287 _0242_
*288 _0243_
*289 _0244_
*290 _0245_
*291 _0246_
*292 _0247_
*293 _0248_
*294 _0249_
*295 _0250_
*296 _0251_
*297 _0252_
*298 _0253_
*299 _0254_
*300 _0255_
*301 _0256_
*302 _0257_
*303 _0258_
*304 _0259_
*305 _0260_
*306 _0261_
*307 _0262_
*308 _0263_
*309 _0264_
*310 _0265_
*311 _0266_
*312 _0267_
*313 _0268_
*314 _0269_
*315 _0270_
*316 _0271_
*317 _0272_
*318 _0273_
*319 _0274_
*320 _0275_
*321 _0276_
*322 _0277_
*323 _0278_
*324 _0279_
*325 _0280_
*326 _0281_
*327 _0282_
*328 _0283_
*329 _0284_
*330 _0285_
*331 _0286_
*332 _0287_
*333 _0288_
*334 _0289_
*335 _0290_
*336 _0291_
*337 _0292_
*338 _0293_
*339 _0294_
*340 _0295_
*341 _0296_
*342 _0297_
*343 _0298_
*344 _0299_
*345 _0300_
*346 _0301_
*347 _0302_
*348 _0303_
*349 _0304_
*350 _0305_
*351 _0306_
*352 _0307_
*353 _0308_
*354 _0309_
*355 _0310_
*356 _0311_
*357 _0312_
*358 _0313_
*359 _0314_
*360 _0315_
*361 _0316_
*362 _0317_
*363 _0318_
*364 _0319_
*365 _0320_
*366 _0321_
*367 _0322_
*368 _0323_
*369 _0324_
*370 _0325_
*371 _0326_
*372 _0327_
*373 _0328_
*374 _0329_
*375 _0330_
*376 _0331_
*377 _0332_
*378 _0333_
*379 _0334_
*380 _0335_
*381 _0336_
*382 _0337_
*383 _0338_
*384 _0339_
*385 _0340_
*386 _0341_
*387 _0342_
*388 _0343_
*389 _0344_
*390 _0345_
*391 _0346_
*392 _0347_
*393 _0348_
*394 _0349_
*395 _0350_
*396 _0351_
*397 _0352_
*398 _0353_
*399 _0354_
*400 _0355_
*401 _0356_
*402 _0357_
*403 _0358_
*404 _0359_
*405 _0360_
*406 _0361_
*407 _0362_
*408 _0363_
*409 _0364_
*410 _0365_
*411 _0366_
*412 _0367_
*413 _0368_
*414 _0369_
*415 _0370_
*416 _0371_
*417 _0372_
*418 _0373_
*419 _0374_
*420 _0375_
*421 _0376_
*422 _0377_
*423 _0378_
*424 _0379_
*425 _0380_
*426 _0381_
*427 _0382_
*428 _0383_
*429 _0384_
*430 _0385_
*431 _0386_
*432 _0387_
*433 _0388_
*434 _0389_
*435 _0390_
*436 _0391_
*437 _0392_
*438 _0393_
*439 _0394_
*440 _0395_
*441 _0396_
*442 _0397_
*443 _0398_
*444 _0399_
*445 _0400_
*446 _0401_
*447 _0402_
*448 _0403_
*449 _0404_
*450 _0405_
*451 _0406_
*452 _0407_
*453 _0408_
*454 _0409_
*455 _0410_
*456 _0411_
*457 _0412_
*458 _0413_
*459 _0414_
*460 _0415_
*461 _0416_
*462 _0417_
*463 _0418_
*464 _0419_
*465 _0420_
*466 _0421_
*467 _0422_
*468 _0423_
*469 _0424_
*470 _0425_
*471 _0426_
*472 _0427_
*473 _0428_
*474 _0429_
*475 _0430_
*476 _0431_
*477 _0432_
*478 _0433_
*479 _0434_
*480 _0435_
*481 _0436_
*482 _0437_
*483 _0438_
*484 _0439_
*485 _0440_
*486 _0441_
*487 _0442_
*488 _0443_
*489 _0444_
*490 _0445_
*491 _0446_
*492 _0447_
*493 _0448_
*494 _0449_
*495 _0450_
*496 _0451_
*497 _0452_
*498 _0453_
*499 _0454_
*500 _0455_
*501 _0456_
*502 _0457_
*503 _0458_
*504 _0459_
*505 _0460_
*506 _0461_
*507 _0462_
*508 _0463_
*509 _0464_
*510 _0465_
*511 _0466_
*512 _0467_
*513 _0468_
*514 _0469_
*515 _0470_
*516 _0471_
*517 _0472_
*518 _0473_
*519 _0474_
*520 _0475_
*521 _0476_
*522 _0477_
*523 _0478_
*524 _0479_
*525 _0480_
*526 _0481_
*527 _0482_
*528 _0483_
*529 _0484_
*530 _0485_
*531 _0486_
*532 _0487_
*533 _0488_
*534 _0489_
*535 _0490_
*536 _0491_
*537 _0492_
*538 _0493_
*539 _0494_
*540 _0495_
*541 _0496_
*542 _0497_
*543 _0498_
*544 _0499_
*545 _0500_
*546 _0501_
*547 _0502_
*548 _0503_
*549 _0504_
*550 _0505_
*551 _0506_
*552 _0507_
*553 _0508_
*554 _0509_
*555 _0510_
*556 _0511_
*557 _0512_
*558 _0513_
*559 _0514_
*560 _0515_
*561 _0516_
*562 _0517_
*563 _0518_
*564 _0519_
*565 _0520_
*566 _0521_
*567 _0522_
*568 _0523_
*569 _0524_
*570 _0525_
*571 _0526_
*572 _0527_
*573 _0528_
*574 _0529_
*575 _0530_
*576 _0531_
*577 _0532_
*578 _0533_
*579 _0534_
*580 _0535_
*581 _0536_
*582 _0537_
*583 _0538_
*584 _0539_
*585 _0540_
*586 _0541_
*587 _0542_
*588 _0543_
*589 _0544_
*590 _0545_
*591 _0546_
*592 _0547_
*593 _0548_
*594 _0549_
*595 _0550_
*596 _0551_
*597 _0552_
*598 _0553_
*599 _0554_
*600 _0555_
*601 _0556_
*602 _0557_
*603 _0558_
*604 _0559_
*605 _0560_
*606 _0561_
*607 _0562_
*608 _0563_
*609 _0564_
*610 _0565_
*611 _0566_
*612 _0567_
*613 _0568_
*614 _0569_
*615 _0570_
*616 _0571_
*617 _0572_
*618 _0573_
*619 _0574_
*620 _0575_
*621 _0576_
*622 _0577_
*623 _0578_
*624 _0579_
*625 _0580_
*626 _0581_
*627 _0582_
*628 _0583_
*629 _0584_
*630 _0585_
*631 _0586_
*632 _0587_
*633 _0588_
*634 _0589_
*635 _0590_
*636 _0591_
*637 _0592_
*638 _0593_
*639 _0594_
*640 _0595_
*641 _0596_
*642 _0597_
*643 _0598_
*644 _0599_
*645 _0600_
*646 _0601_
*647 _0602_
*648 _0603_
*649 _0604_
*650 _0605_
*651 _0606_
*652 _0607_
*653 _0608_
*654 _0609_
*655 _0610_
*656 _0611_
*657 _0612_
*658 _0613_
*659 _0614_
*660 _0615_
*661 _0616_
*662 _0617_
*663 _0618_
*664 _0619_
*665 _0620_
*666 _0621_
*667 _0622_
*668 _0623_
*669 _0624_
*670 _0625_
*671 _0626_
*672 _0627_
*673 _0628_
*674 _0629_
*675 _0630_
*676 _0631_
*677 _0632_
*678 _0633_
*679 _0634_
*680 _0635_
*681 _0636_
*682 _0637_
*683 _0638_
*684 _0639_
*685 _0640_
*686 _0641_
*687 _0642_
*688 _0643_
*689 _0644_
*690 _0645_
*691 _0646_
*692 _0647_
*693 _0648_
*694 _0649_
*695 _0650_
*696 _0651_
*697 _0652_
*698 _0653_
*699 _0654_
*700 _0655_
*701 _0656_
*702 _0657_
*703 _0658_
*704 _0659_
*705 _0660_
*706 _0661_
*707 _0662_
*708 _0663_
*709 _0664_
*710 _0665_
*711 _0666_
*712 _0667_
*713 _0668_
*714 _0669_
*715 _0670_
*716 _0671_
*717 _0672_
*718 _0673_
*719 _0674_
*720 _0675_
*721 _0676_
*722 _0677_
*723 _0678_
*724 _0679_
*725 _0680_
*726 _0681_
*727 _0682_
*728 _0683_
*729 _0684_
*730 _0685_
*731 _0686_
*732 _0687_
*733 _0688_
*734 _0689_
*735 _0690_
*736 addr0_reg\[0\]
*737 addr0_reg\[1\]
*738 addr0_reg\[2\]
*739 addr0_reg\[3\]
*740 addr0_reg\[4\]
*741 addr0_reg\[5\]
*742 addr0_reg\[6\]
*743 addr0_reg\[7\]
*744 clknet_0_clk0
*745 clknet_2_0__leaf_clk0
*746 clknet_2_1__leaf_clk0
*747 clknet_2_2__leaf_clk0
*748 clknet_2_3__leaf_clk0
*749 cs0_reg
*750 net1
*751 net10
*752 net100
*753 net101
*754 net102
*755 net103
*756 net104
*757 net105
*758 net106
*759 net107
*760 net108
*761 net109
*762 net11
*763 net110
*764 net111
*765 net112
*766 net113
*767 net114
*768 net115
*769 net116
*770 net117
*771 net118
*772 net119
*773 net12
*774 net120
*775 net121
*776 net122
*777 net123
*778 net124
*779 net125
*780 net126
*781 net127
*782 net128
*783 net129
*784 net13
*785 net130
*786 net131
*787 net132
*788 net133
*789 net134
*790 net135
*791 net136
*792 net137
*793 net138
*794 net139
*795 net14
*796 net140
*797 net141
*798 net142
*799 net143
*800 net144
*801 net145
*802 net146
*803 net147
*804 net148
*805 net149
*806 net15
*807 net150
*808 net151
*809 net152
*810 net153
*811 net154
*812 net155
*813 net156
*814 net157
*815 net158
*816 net159
*817 net16
*818 net160
*819 net161
*820 net162
*821 net163
*822 net164
*823 net165
*824 net166
*825 net167
*826 net168
*827 net169
*828 net17
*829 net170
*830 net171
*831 net172
*832 net173
*833 net174
*834 net175
*835 net176
*836 net177
*837 net178
*838 net179
*839 net18
*840 net180
*841 net181
*842 net182
*843 net183
*844 net184
*845 net185
*846 net186
*847 net187
*848 net188
*849 net189
*850 net19
*851 net190
*852 net191
*853 net192
*854 net193
*855 net194
*856 net195
*857 net196
*858 net197
*859 net198
*860 net199
*861 net2
*862 net20
*863 net200
*864 net201
*865 net202
*866 net203
*867 net204
*868 net205
*869 net206
*870 net207
*871 net208
*872 net209
*873 net21
*874 net210
*875 net211
*876 net212
*877 net213
*878 net214
*879 net215
*880 net216
*881 net217
*882 net218
*883 net219
*884 net22
*885 net220
*886 net221
*887 net222
*888 net223
*889 net224
*890 net225
*891 net226
*892 net227
*893 net228
*894 net229
*895 net23
*896 net230
*897 net231
*898 net232
*899 net233
*900 net234
*901 net235
*902 net236
*903 net237
*904 net238
*905 net239
*906 net24
*907 net240
*908 net241
*909 net242
*910 net243
*911 net244
*912 net245
*913 net246
*914 net247
*915 net248
*916 net249
*917 net25
*918 net250
*919 net251
*920 net252
*921 net253
*922 net254
*923 net255
*924 net256
*925 net257
*926 net258
*927 net259
*928 net26
*929 net260
*930 net261
*931 net262
*932 net263
*933 net264
*934 net265
*935 net266
*936 net267
*937 net268
*938 net269
*939 net27
*940 net270
*941 net271
*942 net272
*943 net273
*944 net274
*945 net275
*946 net276
*947 net277
*948 net278
*949 net279
*950 net28
*951 net280
*952 net281
*953 net282
*954 net283
*955 net284
*956 net285
*957 net286
*958 net287
*959 net288
*960 net289
*961 net29
*962 net290
*963 net291
*964 net292
*965 net293
*966 net294
*967 net295
*968 net296
*969 net297
*970 net298
*971 net299
*972 net3
*973 net30
*974 net300
*975 net301
*976 net302
*977 net303
*978 net304
*979 net305
*980 net306
*981 net307
*982 net308
*983 net309
*984 net31
*985 net310
*986 net311
*987 net312
*988 net313
*989 net314
*990 net315
*991 net316
*992 net317
*993 net318
*994 net319
*995 net32
*996 net320
*997 net321
*998 net322
*999 net323
*1000 net324
*1001 net325
*1002 net326
*1003 net327
*1004 net328
*1005 net329
*1006 net33
*1007 net330
*1008 net331
*1009 net332
*1010 net333
*1011 net334
*1012 net335
*1013 net336
*1014 net337
*1015 net338
*1016 net339
*1017 net34
*1018 net340
*1019 net341
*1020 net342
*1021 net343
*1022 net344
*1023 net345
*1024 net346
*1025 net347
*1026 net348
*1027 net349
*1028 net35
*1029 net350
*1030 net351
*1031 net352
*1032 net353
*1033 net354
*1034 net355
*1035 net356
*1036 net357
*1037 net358
*1038 net359
*1039 net36
*1040 net360
*1041 net361
*1042 net362
*1043 net363
*1044 net364
*1045 net365
*1046 net366
*1047 net367
*1048 net368
*1049 net369
*1050 net37
*1051 net370
*1052 net371
*1053 net372
*1054 net373
*1055 net374
*1056 net375
*1057 net376
*1058 net377
*1059 net378
*1060 net379
*1061 net38
*1062 net380
*1063 net381
*1064 net382
*1065 net383
*1066 net384
*1067 net385
*1068 net386
*1069 net387
*1070 net388
*1071 net389
*1072 net39
*1073 net390
*1074 net391
*1075 net392
*1076 net393
*1077 net394
*1078 net395
*1079 net396
*1080 net397
*1081 net398
*1082 net399
*1083 net4
*1084 net40
*1085 net400
*1086 net401
*1087 net402
*1088 net403
*1089 net404
*1090 net405
*1091 net406
*1092 net407
*1093 net408
*1094 net409
*1095 net41
*1096 net410
*1097 net411
*1098 net412
*1099 net413
*1100 net414
*1101 net415
*1102 net416
*1103 net417
*1104 net418
*1105 net419
*1106 net42
*1107 net420
*1108 net421
*1109 net422
*1110 net423
*1111 net424
*1112 net425
*1113 net426
*1114 net427
*1115 net428
*1116 net429
*1117 net43
*1118 net430
*1119 net431
*1120 net432
*1121 net433
*1122 net434
*1123 net435
*1124 net436
*1125 net437
*1126 net438
*1127 net439
*1128 net44
*1129 net440
*1130 net441
*1131 net442
*1132 net443
*1133 net444
*1134 net445
*1135 net446
*1136 net447
*1137 net448
*1138 net449
*1139 net45
*1140 net450
*1141 net451
*1142 net452
*1143 net453
*1144 net454
*1145 net455
*1146 net456
*1147 net457
*1148 net458
*1149 net459
*1150 net46
*1151 net460
*1152 net461
*1153 net462
*1154 net463
*1155 net464
*1156 net465
*1157 net466
*1158 net467
*1159 net468
*1160 net469
*1161 net47
*1162 net470
*1163 net471
*1164 net472
*1165 net473
*1166 net474
*1167 net475
*1168 net476
*1169 net477
*1170 net478
*1171 net479
*1172 net48
*1173 net480
*1174 net481
*1175 net482
*1176 net483
*1177 net484
*1178 net485
*1179 net486
*1180 net487
*1181 net488
*1182 net489
*1183 net49
*1184 net490
*1185 net491
*1186 net492
*1187 net493
*1188 net494
*1189 net495
*1190 net496
*1191 net497
*1192 net498
*1193 net499
*1194 net5
*1195 net50
*1196 net500
*1197 net501
*1198 net502
*1199 net503
*1200 net504
*1201 net505
*1202 net506
*1203 net507
*1204 net508
*1205 net509
*1206 net51
*1207 net510
*1208 net511
*1209 net512
*1210 net513
*1211 net514
*1212 net515
*1213 net516
*1214 net517
*1215 net518
*1216 net519
*1217 net52
*1218 net520
*1219 net521
*1220 net522
*1221 net523
*1222 net524
*1223 net525
*1224 net526
*1225 net527
*1226 net528
*1227 net529
*1228 net53
*1229 net530
*1230 net531
*1231 net532
*1232 net533
*1233 net534
*1234 net535
*1235 net536
*1236 net537
*1237 net538
*1238 net539
*1239 net54
*1240 net540
*1241 net541
*1242 net542
*1243 net543
*1244 net544
*1245 net545
*1246 net546
*1247 net547
*1248 net548
*1249 net549
*1250 net55
*1251 net550
*1252 net551
*1253 net552
*1254 net553
*1255 net554
*1256 net555
*1257 net556
*1258 net557
*1259 net558
*1260 net559
*1261 net56
*1262 net560
*1263 net561
*1264 net562
*1265 net563
*1266 net564
*1267 net565
*1268 net566
*1269 net567
*1270 net568
*1271 net569
*1272 net57
*1273 net570
*1274 net571
*1275 net572
*1276 net573
*1277 net574
*1278 net575
*1279 net576
*1280 net577
*1281 net578
*1282 net579
*1283 net58
*1284 net580
*1285 net581
*1286 net582
*1287 net583
*1288 net584
*1289 net585
*1290 net586
*1291 net587
*1292 net588
*1293 net589
*1294 net59
*1295 net590
*1296 net591
*1297 net592
*1298 net593
*1299 net594
*1300 net595
*1301 net596
*1302 net597
*1303 net598
*1304 net599
*1305 net6
*1306 net60
*1307 net600
*1308 net601
*1309 net602
*1310 net603
*1311 net604
*1312 net605
*1313 net606
*1314 net607
*1315 net608
*1316 net609
*1317 net61
*1318 net610
*1319 net611
*1320 net612
*1321 net613
*1322 net614
*1323 net615
*1324 net616
*1325 net617
*1326 net618
*1327 net619
*1328 net62
*1329 net620
*1330 net621
*1331 net622
*1332 net623
*1333 net624
*1334 net625
*1335 net626
*1336 net627
*1337 net628
*1338 net629
*1339 net63
*1340 net630
*1341 net631
*1342 net632
*1343 net633
*1344 net634
*1345 net635
*1346 net636
*1347 net637
*1348 net638
*1349 net639
*1350 net64
*1351 net640
*1352 net641
*1353 net642
*1354 net643
*1355 net644
*1356 net645
*1357 net646
*1358 net65
*1359 net66
*1360 net67
*1361 net68
*1362 net69
*1363 net7
*1364 net70
*1365 net71
*1366 net72
*1367 net73
*1368 net74
*1369 net75
*1370 net76
*1371 net77
*1372 net78
*1373 net79
*1374 net8
*1375 net80
*1376 net81
*1377 net82
*1378 net83
*1379 net84
*1380 net85
*1381 net86
*1382 net87
*1383 net88
*1384 net89
*1385 net9
*1386 net90
*1387 net91
*1388 net92
*1389 net93
*1390 net94
*1391 net95
*1392 net96
*1393 net97
*1394 net98
*1395 net99
*1396 ANTENNA_1
*1397 ANTENNA_10
*1398 ANTENNA_11
*1399 ANTENNA_12
*1400 ANTENNA_13
*1401 ANTENNA_14
*1402 ANTENNA_15
*1403 ANTENNA_16
*1404 ANTENNA_17
*1405 ANTENNA_18
*1406 ANTENNA_19
*1407 ANTENNA_2
*1408 ANTENNA_20
*1409 ANTENNA_21
*1410 ANTENNA_22
*1411 ANTENNA_23
*1412 ANTENNA_24
*1413 ANTENNA_25
*1414 ANTENNA_26
*1415 ANTENNA_27
*1416 ANTENNA_28
*1417 ANTENNA_29
*1418 ANTENNA_3
*1419 ANTENNA_30
*1420 ANTENNA_31
*1421 ANTENNA_32
*1422 ANTENNA_33
*1423 ANTENNA_34
*1424 ANTENNA_35
*1425 ANTENNA_36
*1426 ANTENNA_37
*1427 ANTENNA_38
*1428 ANTENNA_39
*1429 ANTENNA_4
*1430 ANTENNA_40
*1431 ANTENNA_41
*1432 ANTENNA_42
*1433 ANTENNA_43
*1434 ANTENNA_44
*1435 ANTENNA_45
*1436 ANTENNA_46
*1437 ANTENNA_47
*1438 ANTENNA_48
*1439 ANTENNA_49
*1440 ANTENNA_5
*1441 ANTENNA_50
*1442 ANTENNA_51
*1443 ANTENNA_52
*1444 ANTENNA_53
*1445 ANTENNA_54
*1446 ANTENNA_6
*1447 ANTENNA_7
*1448 ANTENNA_8
*1449 ANTENNA_9
*1450 FILLER_0_0_109
*1451 FILLER_0_0_113
*1452 FILLER_0_0_125
*1453 FILLER_0_0_137
*1454 FILLER_0_0_141
*1455 FILLER_0_0_15
*1456 FILLER_0_0_153
*1457 FILLER_0_0_165
*1458 FILLER_0_0_169
*1459 FILLER_0_0_175
*1460 FILLER_0_0_187
*1461 FILLER_0_0_191
*1462 FILLER_0_0_197
*1463 FILLER_0_0_209
*1464 FILLER_0_0_221
*1465 FILLER_0_0_225
*1466 FILLER_0_0_233
*1467 FILLER_0_0_238
*1468 FILLER_0_0_250
*1469 FILLER_0_0_253
*1470 FILLER_0_0_261
*1471 FILLER_0_0_266
*1472 FILLER_0_0_27
*1473 FILLER_0_0_278
*1474 FILLER_0_0_281
*1475 FILLER_0_0_29
*1476 FILLER_0_0_293
*1477 FILLER_0_0_3
*1478 FILLER_0_0_305
*1479 FILLER_0_0_309
*1480 FILLER_0_0_321
*1481 FILLER_0_0_333
*1482 FILLER_0_0_337
*1483 FILLER_0_0_341
*1484 FILLER_0_0_41
*1485 FILLER_0_0_53
*1486 FILLER_0_0_57
*1487 FILLER_0_0_69
*1488 FILLER_0_0_81
*1489 FILLER_0_0_85
*1490 FILLER_0_0_97
*1491 FILLER_0_10_101
*1492 FILLER_0_10_136
*1493 FILLER_0_10_147
*1494 FILLER_0_10_15
*1495 FILLER_0_10_158
*1496 FILLER_0_10_166
*1497 FILLER_0_10_178
*1498 FILLER_0_10_183
*1499 FILLER_0_10_192
*1500 FILLER_0_10_197
*1501 FILLER_0_10_205
*1502 FILLER_0_10_220
*1503 FILLER_0_10_232
*1504 FILLER_0_10_244
*1505 FILLER_0_10_256
*1506 FILLER_0_10_26
*1507 FILLER_0_10_268
*1508 FILLER_0_10_279
*1509 FILLER_0_10_29
*1510 FILLER_0_10_291
*1511 FILLER_0_10_3
*1512 FILLER_0_10_303
*1513 FILLER_0_10_307
*1514 FILLER_0_10_309
*1515 FILLER_0_10_321
*1516 FILLER_0_10_333
*1517 FILLER_0_10_341
*1518 FILLER_0_10_54
*1519 FILLER_0_10_58
*1520 FILLER_0_10_73
*1521 FILLER_0_10_95
*1522 FILLER_0_11_110
*1523 FILLER_0_11_113
*1524 FILLER_0_11_119
*1525 FILLER_0_11_127
*1526 FILLER_0_11_131
*1527 FILLER_0_11_166
*1528 FILLER_0_11_175
*1529 FILLER_0_11_187
*1530 FILLER_0_11_19
*1531 FILLER_0_11_202
*1532 FILLER_0_11_225
*1533 FILLER_0_11_237
*1534 FILLER_0_11_241
*1535 FILLER_0_11_265
*1536 FILLER_0_11_277
*1537 FILLER_0_11_281
*1538 FILLER_0_11_289
*1539 FILLER_0_11_305
*1540 FILLER_0_11_317
*1541 FILLER_0_11_337
*1542 FILLER_0_11_34
*1543 FILLER_0_11_54
*1544 FILLER_0_11_60
*1545 FILLER_0_11_68
*1546 FILLER_0_11_87
*1547 FILLER_0_12_116
*1548 FILLER_0_12_132
*1549 FILLER_0_12_141
*1550 FILLER_0_12_146
*1551 FILLER_0_12_154
*1552 FILLER_0_12_162
*1553 FILLER_0_12_172
*1554 FILLER_0_12_186
*1555 FILLER_0_12_194
*1556 FILLER_0_12_197
*1557 FILLER_0_12_205
*1558 FILLER_0_12_218
*1559 FILLER_0_12_227
*1560 FILLER_0_12_239
*1561 FILLER_0_12_248
*1562 FILLER_0_12_253
*1563 FILLER_0_12_265
*1564 FILLER_0_12_279
*1565 FILLER_0_12_283
*1566 FILLER_0_12_289
*1567 FILLER_0_12_3
*1568 FILLER_0_12_301
*1569 FILLER_0_12_307
*1570 FILLER_0_12_309
*1571 FILLER_0_12_32
*1572 FILLER_0_12_321
*1573 FILLER_0_12_330
*1574 FILLER_0_12_340
*1575 FILLER_0_12_52
*1576 FILLER_0_12_72
*1577 FILLER_0_12_92
*1578 FILLER_0_13_106
*1579 FILLER_0_13_111
*1580 FILLER_0_13_133
*1581 FILLER_0_13_144
*1582 FILLER_0_13_148
*1583 FILLER_0_13_152
*1584 FILLER_0_13_164
*1585 FILLER_0_13_175
*1586 FILLER_0_13_183
*1587 FILLER_0_13_200
*1588 FILLER_0_13_208
*1589 FILLER_0_13_221
*1590 FILLER_0_13_230
*1591 FILLER_0_13_234
*1592 FILLER_0_13_241
*1593 FILLER_0_13_253
*1594 FILLER_0_13_267
*1595 FILLER_0_13_279
*1596 FILLER_0_13_281
*1597 FILLER_0_13_293
*1598 FILLER_0_13_3
*1599 FILLER_0_13_305
*1600 FILLER_0_13_314
*1601 FILLER_0_13_337
*1602 FILLER_0_13_49
*1603 FILLER_0_13_57
*1604 FILLER_0_13_66
*1605 FILLER_0_13_74
*1606 FILLER_0_13_85
*1607 FILLER_0_14_108
*1608 FILLER_0_14_131
*1609 FILLER_0_14_139
*1610 FILLER_0_14_150
*1611 FILLER_0_14_154
*1612 FILLER_0_14_163
*1613 FILLER_0_14_183
*1614 FILLER_0_14_19
*1615 FILLER_0_14_195
*1616 FILLER_0_14_197
*1617 FILLER_0_14_217
*1618 FILLER_0_14_225
*1619 FILLER_0_14_229
*1620 FILLER_0_14_248
*1621 FILLER_0_14_265
*1622 FILLER_0_14_277
*1623 FILLER_0_14_29
*1624 FILLER_0_14_292
*1625 FILLER_0_14_304
*1626 FILLER_0_14_339
*1627 FILLER_0_14_57
*1628 FILLER_0_14_71
*1629 FILLER_0_14_77
*1630 FILLER_0_14_85
*1631 FILLER_0_14_96
*1632 FILLER_0_15_110
*1633 FILLER_0_15_113
*1634 FILLER_0_15_124
*1635 FILLER_0_15_134
*1636 FILLER_0_15_140
*1637 FILLER_0_15_152
*1638 FILLER_0_15_158
*1639 FILLER_0_15_167
*1640 FILLER_0_15_169
*1641 FILLER_0_15_181
*1642 FILLER_0_15_193
*1643 FILLER_0_15_205
*1644 FILLER_0_15_217
*1645 FILLER_0_15_223
*1646 FILLER_0_15_225
*1647 FILLER_0_15_237
*1648 FILLER_0_15_249
*1649 FILLER_0_15_255
*1650 FILLER_0_15_262
*1651 FILLER_0_15_274
*1652 FILLER_0_15_28
*1653 FILLER_0_15_281
*1654 FILLER_0_15_293
*1655 FILLER_0_15_305
*1656 FILLER_0_15_317
*1657 FILLER_0_15_337
*1658 FILLER_0_15_51
*1659 FILLER_0_15_55
*1660 FILLER_0_15_57
*1661 FILLER_0_15_6
*1662 FILLER_0_15_69
*1663 FILLER_0_15_85
*1664 FILLER_0_16_104
*1665 FILLER_0_16_113
*1666 FILLER_0_16_124
*1667 FILLER_0_16_132
*1668 FILLER_0_16_146
*1669 FILLER_0_16_15
*1670 FILLER_0_16_158
*1671 FILLER_0_16_170
*1672 FILLER_0_16_184
*1673 FILLER_0_16_202
*1674 FILLER_0_16_221
*1675 FILLER_0_16_230
*1676 FILLER_0_16_236
*1677 FILLER_0_16_262
*1678 FILLER_0_16_27
*1679 FILLER_0_16_272
*1680 FILLER_0_16_292
*1681 FILLER_0_16_3
*1682 FILLER_0_16_300
*1683 FILLER_0_16_315
*1684 FILLER_0_16_85
*1685 FILLER_0_17_109
*1686 FILLER_0_17_11
*1687 FILLER_0_17_113
*1688 FILLER_0_17_124
*1689 FILLER_0_17_132
*1690 FILLER_0_17_148
*1691 FILLER_0_17_157
*1692 FILLER_0_17_165
*1693 FILLER_0_17_169
*1694 FILLER_0_17_177
*1695 FILLER_0_17_184
*1696 FILLER_0_17_190
*1697 FILLER_0_17_196
*1698 FILLER_0_17_210
*1699 FILLER_0_17_222
*1700 FILLER_0_17_268
*1701 FILLER_0_17_277
*1702 FILLER_0_17_281
*1703 FILLER_0_17_293
*1704 FILLER_0_17_3
*1705 FILLER_0_17_312
*1706 FILLER_0_17_333
*1707 FILLER_0_17_337
*1708 FILLER_0_17_44
*1709 FILLER_0_17_54
*1710 FILLER_0_17_57
*1711 FILLER_0_17_61
*1712 FILLER_0_17_74
*1713 FILLER_0_17_84
*1714 FILLER_0_18_100
*1715 FILLER_0_18_104
*1716 FILLER_0_18_116
*1717 FILLER_0_18_127
*1718 FILLER_0_18_138
*1719 FILLER_0_18_141
*1720 FILLER_0_18_149
*1721 FILLER_0_18_164
*1722 FILLER_0_18_176
*1723 FILLER_0_18_184
*1724 FILLER_0_18_197
*1725 FILLER_0_18_205
*1726 FILLER_0_18_209
*1727 FILLER_0_18_22
*1728 FILLER_0_18_221
*1729 FILLER_0_18_227
*1730 FILLER_0_18_231
*1731 FILLER_0_18_244
*1732 FILLER_0_18_248
*1733 FILLER_0_18_259
*1734 FILLER_0_18_27
*1735 FILLER_0_18_271
*1736 FILLER_0_18_283
*1737 FILLER_0_18_295
*1738 FILLER_0_18_307
*1739 FILLER_0_18_309
*1740 FILLER_0_18_315
*1741 FILLER_0_18_323
*1742 FILLER_0_18_38
*1743 FILLER_0_18_51
*1744 FILLER_0_18_60
*1745 FILLER_0_18_66
*1746 FILLER_0_18_70
*1747 FILLER_0_18_82
*1748 FILLER_0_18_92
*1749 FILLER_0_18_96
*1750 FILLER_0_19_111
*1751 FILLER_0_19_113
*1752 FILLER_0_19_125
*1753 FILLER_0_19_137
*1754 FILLER_0_19_14
*1755 FILLER_0_19_143
*1756 FILLER_0_19_155
*1757 FILLER_0_19_167
*1758 FILLER_0_19_169
*1759 FILLER_0_19_181
*1760 FILLER_0_19_193
*1761 FILLER_0_19_207
*1762 FILLER_0_19_219
*1763 FILLER_0_19_223
*1764 FILLER_0_19_234
*1765 FILLER_0_19_246
*1766 FILLER_0_19_258
*1767 FILLER_0_19_266
*1768 FILLER_0_19_278
*1769 FILLER_0_19_29
*1770 FILLER_0_19_293
*1771 FILLER_0_19_305
*1772 FILLER_0_19_317
*1773 FILLER_0_19_325
*1774 FILLER_0_19_337
*1775 FILLER_0_19_341
*1776 FILLER_0_19_47
*1777 FILLER_0_19_6
*1778 FILLER_0_19_80
*1779 FILLER_0_19_99
*1780 FILLER_0_1_105
*1781 FILLER_0_1_111
*1782 FILLER_0_1_113
*1783 FILLER_0_1_125
*1784 FILLER_0_1_137
*1785 FILLER_0_1_149
*1786 FILLER_0_1_15
*1787 FILLER_0_1_161
*1788 FILLER_0_1_167
*1789 FILLER_0_1_169
*1790 FILLER_0_1_181
*1791 FILLER_0_1_193
*1792 FILLER_0_1_205
*1793 FILLER_0_1_217
*1794 FILLER_0_1_223
*1795 FILLER_0_1_225
*1796 FILLER_0_1_237
*1797 FILLER_0_1_249
*1798 FILLER_0_1_261
*1799 FILLER_0_1_27
*1800 FILLER_0_1_273
*1801 FILLER_0_1_279
*1802 FILLER_0_1_281
*1803 FILLER_0_1_293
*1804 FILLER_0_1_3
*1805 FILLER_0_1_305
*1806 FILLER_0_1_317
*1807 FILLER_0_1_329
*1808 FILLER_0_1_335
*1809 FILLER_0_1_337
*1810 FILLER_0_1_341
*1811 FILLER_0_1_39
*1812 FILLER_0_1_51
*1813 FILLER_0_1_55
*1814 FILLER_0_1_57
*1815 FILLER_0_1_69
*1816 FILLER_0_1_81
*1817 FILLER_0_1_93
*1818 FILLER_0_20_121
*1819 FILLER_0_20_133
*1820 FILLER_0_20_139
*1821 FILLER_0_20_141
*1822 FILLER_0_20_153
*1823 FILLER_0_20_159
*1824 FILLER_0_20_166
*1825 FILLER_0_20_174
*1826 FILLER_0_20_181
*1827 FILLER_0_20_195
*1828 FILLER_0_20_209
*1829 FILLER_0_20_221
*1830 FILLER_0_20_233
*1831 FILLER_0_20_250
*1832 FILLER_0_20_259
*1833 FILLER_0_20_276
*1834 FILLER_0_20_284
*1835 FILLER_0_20_293
*1836 FILLER_0_20_297
*1837 FILLER_0_20_3
*1838 FILLER_0_20_304
*1839 FILLER_0_20_315
*1840 FILLER_0_20_330
*1841 FILLER_0_20_47
*1842 FILLER_0_20_55
*1843 FILLER_0_20_82
*1844 FILLER_0_20_85
*1845 FILLER_0_20_9
*1846 FILLER_0_20_90
*1847 FILLER_0_20_97
*1848 FILLER_0_21_108
*1849 FILLER_0_21_113
*1850 FILLER_0_21_125
*1851 FILLER_0_21_145
*1852 FILLER_0_21_159
*1853 FILLER_0_21_166
*1854 FILLER_0_21_169
*1855 FILLER_0_21_187
*1856 FILLER_0_21_195
*1857 FILLER_0_21_202
*1858 FILLER_0_21_210
*1859 FILLER_0_21_218
*1860 FILLER_0_21_225
*1861 FILLER_0_21_237
*1862 FILLER_0_21_249
*1863 FILLER_0_21_25
*1864 FILLER_0_21_253
*1865 FILLER_0_21_265
*1866 FILLER_0_21_277
*1867 FILLER_0_21_281
*1868 FILLER_0_21_292
*1869 FILLER_0_21_300
*1870 FILLER_0_21_308
*1871 FILLER_0_21_320
*1872 FILLER_0_21_337
*1873 FILLER_0_21_46
*1874 FILLER_0_21_64
*1875 FILLER_0_21_71
*1876 FILLER_0_21_83
*1877 FILLER_0_21_91
*1878 FILLER_0_21_99
*1879 FILLER_0_22_122
*1880 FILLER_0_22_126
*1881 FILLER_0_22_134
*1882 FILLER_0_22_141
*1883 FILLER_0_22_15
*1884 FILLER_0_22_153
*1885 FILLER_0_22_165
*1886 FILLER_0_22_176
*1887 FILLER_0_22_188
*1888 FILLER_0_22_197
*1889 FILLER_0_22_209
*1890 FILLER_0_22_213
*1891 FILLER_0_22_226
*1892 FILLER_0_22_234
*1893 FILLER_0_22_242
*1894 FILLER_0_22_250
*1895 FILLER_0_22_253
*1896 FILLER_0_22_257
*1897 FILLER_0_22_266
*1898 FILLER_0_22_27
*1899 FILLER_0_22_274
*1900 FILLER_0_22_279
*1901 FILLER_0_22_29
*1902 FILLER_0_22_291
*1903 FILLER_0_22_3
*1904 FILLER_0_22_303
*1905 FILLER_0_22_307
*1906 FILLER_0_22_309
*1907 FILLER_0_22_317
*1908 FILLER_0_22_341
*1909 FILLER_0_22_41
*1910 FILLER_0_22_53
*1911 FILLER_0_22_57
*1912 FILLER_0_22_61
*1913 FILLER_0_22_75
*1914 FILLER_0_22_83
*1915 FILLER_0_22_85
*1916 FILLER_0_22_97
*1917 FILLER_0_23_105
*1918 FILLER_0_23_109
*1919 FILLER_0_23_11
*1920 FILLER_0_23_118
*1921 FILLER_0_23_142
*1922 FILLER_0_23_154
*1923 FILLER_0_23_166
*1924 FILLER_0_23_169
*1925 FILLER_0_23_18
*1926 FILLER_0_23_181
*1927 FILLER_0_23_193
*1928 FILLER_0_23_201
*1929 FILLER_0_23_211
*1930 FILLER_0_23_219
*1931 FILLER_0_23_22
*1932 FILLER_0_23_223
*1933 FILLER_0_23_228
*1934 FILLER_0_23_234
*1935 FILLER_0_23_251
*1936 FILLER_0_23_278
*1937 FILLER_0_23_299
*1938 FILLER_0_23_3
*1939 FILLER_0_23_311
*1940 FILLER_0_23_319
*1941 FILLER_0_23_337
*1942 FILLER_0_23_36
*1943 FILLER_0_23_42
*1944 FILLER_0_23_49
*1945 FILLER_0_23_55
*1946 FILLER_0_23_57
*1947 FILLER_0_23_65
*1948 FILLER_0_23_76
*1949 FILLER_0_23_97
*1950 FILLER_0_24_106
*1951 FILLER_0_24_11
*1952 FILLER_0_24_118
*1953 FILLER_0_24_137
*1954 FILLER_0_24_141
*1955 FILLER_0_24_149
*1956 FILLER_0_24_168
*1957 FILLER_0_24_17
*1958 FILLER_0_24_176
*1959 FILLER_0_24_191
*1960 FILLER_0_24_195
*1961 FILLER_0_24_197
*1962 FILLER_0_24_205
*1963 FILLER_0_24_209
*1964 FILLER_0_24_230
*1965 FILLER_0_24_238
*1966 FILLER_0_24_242
*1967 FILLER_0_24_250
*1968 FILLER_0_24_26
*1969 FILLER_0_24_261
*1970 FILLER_0_24_273
*1971 FILLER_0_24_285
*1972 FILLER_0_24_297
*1973 FILLER_0_24_3
*1974 FILLER_0_24_305
*1975 FILLER_0_24_315
*1976 FILLER_0_24_35
*1977 FILLER_0_24_43
*1978 FILLER_0_24_55
*1979 FILLER_0_24_67
*1980 FILLER_0_24_78
*1981 FILLER_0_24_88
*1982 FILLER_0_25_111
*1983 FILLER_0_25_113
*1984 FILLER_0_25_127
*1985 FILLER_0_25_135
*1986 FILLER_0_25_142
*1987 FILLER_0_25_15