*SPEF "ieee 1481-1999"
*DESIGN "cust_rom"
*DATE "06:06:23 Thursday September 26, 2024"
*VENDOR "The OpenROAD Project"
*PROGRAM "OpenROAD"
*VERSION "b16bda7e82721d10566ff7e2b68f1ff0be9f9e38"
*DESIGN_FLOW "NAME_SCOPE LOCAL" "PIN_CAP NONE"
*DIVIDER /
*DELIMITER :
*BUS_DELIMITER []
*T_UNIT 1 NS
*C_UNIT 1 PF
*R_UNIT 1 OHM
*L_UNIT 1 HENRY

*NAME_MAP
*3 addr0[0]
*4 addr0[1]
*5 addr0[2]
*6 addr0[3]
*7 addr0[4]
*8 addr0[5]
*9 addr0[6]
*10 addr0[7]
*11 clk0
*12 cs0
*13 dout0[0]
*14 dout0[10]
*15 dout0[11]
*16 dout0[12]
*17 dout0[13]
*18 dout0[14]
*19 dout0[15]
*20 dout0[16]
*21 dout0[17]
*22 dout0[18]
*23 dout0[19]
*24 dout0[1]
*25 dout0[20]
*26 dout0[21]
*27 dout0[22]
*28 dout0[23]
*29 dout0[24]
*30 dout0[25]
*31 dout0[26]
*32 dout0[27]
*33 dout0[28]
*34 dout0[29]
*35 dout0[2]
*36 dout0[30]
*37 dout0[31]
*38 dout0[3]
*39 dout0[4]
*40 dout0[5]
*41 dout0[6]
*42 dout0[7]
*43 dout0[8]
*44 dout0[9]
*45 _0000_
*46 _0001_
*47 _0002_
*48 _0003_
*49 _0004_
*50 _0005_
*51 _0006_
*52 _0007_
*53 _0008_
*54 _0009_
*55 _0010_
*56 _0011_
*57 _0012_
*58 _0013_
*59 _0014_
*60 _0015_
*61 _0016_
*62 _0017_
*63 _0018_
*64 _0019_
*65 _0020_
*66 _0021_
*67 _0022_
*68 _0023_
*69 _0024_
*70 _0025_
*71 _0026_
*72 _0027_
*73 _0028_
*74 _0029_
*75 _0030_
*76 _0031_
*77 _0032_
*78 _0033_
*79 _0034_
*80 _0035_
*81 _0036_
*82 _0037_
*83 _0038_
*84 _0039_
*85 _0040_
*86 _0041_
*87 _0042_
*88 _0043_
*89 _0044_
*90 _0045_
*91 _0046_
*92 _0047_
*93 _0048_
*94 _0049_
*95 _0050_
*96 _0051_
*97 _0052_
*98 _0053_
*99 _0054_
*100 _0055_
*101 _0056_
*102 _0057_
*103 _0058_
*104 _0059_
*105 _0060_
*106 _0061_
*107 _0062_
*108 _0063_
*109 _0064_
*110 _0065_
*111 _0066_
*112 _0067_
*113 _0068_
*114 _0069_
*115 _0070_
*116 _0071_
*117 _0072_
*118 _0073_
*119 _0074_
*120 _0075_
*121 _0076_
*122 _0077_
*123 _0078_
*124 _0079_
*125 _0080_
*126 _0081_
*127 _0082_
*128 _0083_
*129 _0084_
*130 _0085_
*131 _0086_
*132 _0087_
*133 _0088_
*134 _0089_
*135 _0090_
*136 _0091_
*137 _0092_
*138 _0093_
*139 _0094_
*140 _0095_
*141 _0096_
*142 _0097_
*143 _0098_
*144 _0099_
*145 _0100_
*146 _0101_
*147 _0102_
*148 _0103_
*149 _0104_
*150 _0105_
*151 _0106_
*152 _0107_
*153 _0108_
*154 _0109_
*155 _0110_
*156 _0111_
*157 _0112_
*158 _0113_
*159 _0114_
*160 _0115_
*161 _0116_
*162 _0117_
*163 _0118_
*164 _0119_
*165 _0120_
*166 _0121_
*167 _0122_
*168 _0123_
*169 _0124_
*170 _0125_
*171 _0126_
*172 _0127_
*173 _0128_
*174 _0129_
*175 _0130_
*176 _0131_
*177 _0132_
*178 _0133_
*179 _0134_
*180 _0135_
*181 _0136_
*182 _0137_
*183 _0138_
*184 _0139_
*185 _0140_
*186 _0141_
*187 _0142_
*188 _0143_
*189 _0144_
*190 _0145_
*191 _0146_
*192 _0147_
*193 _0148_
*194 _0149_
*195 _0150_
*196 _0151_
*197 _0152_
*198 _0153_
*199 _0154_
*200 _0155_
*201 _0156_
*202 _0157_
*203 _0158_
*204 _0159_
*205 _0160_
*206 _0161_
*207 _0162_
*208 _0163_
*209 _0164_
*210 _0165_
*211 _0166_
*212 _0167_
*213 _0168_
*214 _0169_
*215 _0170_
*216 _0171_
*217 _0172_
*218 _0173_
*219 _0174_
*220 _0175_
*221 _0176_
*222 _0177_
*223 _0178_
*224 _0179_
*225 _0180_
*226 _0181_
*227 _0182_
*228 _0183_
*229 _0184_
*230 _0185_
*231 _0186_
*232 _0187_
*233 _0188_
*234 _0189_
*235 _0190_
*236 _0191_
*237 _0192_
*238 _0193_
*239 _0194_
*240 _0195_
*241 _0196_
*242 _0197_
*243 _0198_
*244 _0199_
*245 _0200_
*246 _0201_
*247 _0202_
*248 _0203_
*249 _0204_
*250 _0205_
*251 _0206_
*252 _0207_
*253 _0208_
*254 _0209_
*255 _0210_
*256 _0211_
*257 _0212_
*258 _0213_
*259 _0214_
*260 _0215_
*261 _0216_
*262 _0217_
*263 _0218_
*264 _0219_
*265 _0220_
*266 _0221_
*267 _0222_
*268 _0223_
*269 _0224_
*270 _0225_
*271 _0226_
*272 _0227_
*273 _0228_
*274 _0229_
*275 _0230_
*276 _0231_
*277 _0232_
*278 _0233_
*279 _0234_
*280 _0235_
*281 _0236_
*282 _0237_
*283 _0238_
*284 _0239_
*285 _0240_
*286 _0241_
*287 _0242_
*288 _0243_
*289 _0244_
*290 _0245_
*291 _0246_
*292 _0247_
*293 _0248_
*294 _0249_
*295 _0250_
*296 _0251_
*297 _0252_
*298 _0253_
*299 _0254_
*300 _0255_
*301 _0256_
*302 _0257_
*303 _0258_
*304 _0259_
*305 _0260_
*306 _0261_
*307 _0262_
*308 _0263_
*309 _0264_
*310 _0265_
*311 _0266_
*312 _0267_
*313 _0268_
*314 _0269_
*315 _0270_
*316 _0271_
*317 _0272_
*318 _0273_
*319 _0274_
*320 _0275_
*321 _0276_
*322 _0277_
*323 _0278_
*324 _0279_
*325 _0280_
*326 _0281_
*327 _0282_
*328 _0283_
*329 _0284_
*330 _0285_
*331 _0286_
*332 _0287_
*333 _0288_
*334 _0289_
*335 _0290_
*336 _0291_
*337 _0292_
*338 _0293_
*339 _0294_
*340 _0295_
*341 _0296_
*342 _0297_
*343 _0298_
*344 _0299_
*345 _0300_
*346 _0301_
*347 _0302_
*348 _0303_
*349 _0304_
*350 _0305_
*351 _0306_
*352 _0307_
*353 _0308_
*354 _0309_
*355 _0310_
*356 _0311_
*357 _0312_
*358 _0313_
*359 _0314_
*360 _0315_
*361 _0316_
*362 _0317_
*363 _0318_
*364 _0319_
*365 _0320_
*366 _0321_
*367 _0322_
*368 _0323_
*369 _0324_
*370 _0325_
*371 _0326_
*372 _0327_
*373 _0328_
*374 _0329_
*375 _0330_
*376 _0331_
*377 _0332_
*378 _0333_
*379 _0334_
*380 _0335_
*381 _0336_
*382 _0337_
*383 _0338_
*384 _0339_
*385 _0340_
*386 _0341_
*387 _0342_
*388 _0343_
*389 _0344_
*390 _0345_
*391 _0346_
*392 _0347_
*393 _0348_
*394 _0349_
*395 _0350_
*396 _0351_
*397 _0352_
*398 _0353_
*399 _0354_
*400 _0355_
*401 _0356_
*402 _0357_
*403 _0358_
*404 _0359_
*405 _0360_
*406 _0361_
*407 _0362_
*408 _0363_
*409 _0364_
*410 _0365_
*411 _0366_
*412 _0367_
*413 _0368_
*414 _0369_
*415 _0370_
*416 _0371_
*417 _0372_
*418 _0373_
*419 _0374_
*420 _0375_
*421 _0376_
*422 _0377_
*423 _0378_
*424 _0379_
*425 _0380_
*426 _0381_
*427 _0382_
*428 _0383_
*429 _0384_
*430 _0385_
*431 _0386_
*432 _0387_
*433 _0388_
*434 _0389_
*435 _0390_
*436 _0391_
*437 _0392_
*438 _0393_
*439 _0394_
*440 _0395_
*441 _0396_
*442 _0397_
*443 _0398_
*444 _0399_
*445 _0400_
*446 _0401_
*447 _0402_
*448 _0403_
*449 _0404_
*450 _0405_
*451 _0406_
*452 _0407_
*453 _0408_
*454 _0409_
*455 _0410_
*456 _0411_
*457 _0412_
*458 _0413_
*459 _0414_
*460 _0415_
*461 _0416_
*462 _0417_
*463 _0418_
*464 _0419_
*465 _0420_
*466 _0421_
*467 _0422_
*468 _0423_
*469 _0424_
*470 _0425_
*471 _0426_
*472 _0427_
*473 _0428_
*474 _0429_
*475 _0430_
*476 _0431_
*477 _0432_
*478 _0433_
*479 _0434_
*480 _0435_
*481 _0436_
*482 _0437_
*483 _0438_
*484 _0439_
*485 _0440_
*486 _0441_
*487 _0442_
*488 _0443_
*489 _0444_
*490 _0445_
*491 _0446_
*492 _0447_
*493 _0448_
*494 _0449_
*495 _0450_
*496 _0451_
*497 _0452_
*498 _0453_
*499 _0454_
*500 _0455_
*501 _0456_
*502 _0457_
*503 _0458_
*504 _0459_
*505 _0460_
*506 _0461_
*507 _0462_
*508 _0463_
*509 _0464_
*510 _0465_
*511 _0466_
*512 _0467_
*513 _0468_
*514 _0469_
*515 _0470_
*516 _0471_
*517 _0472_
*518 _0473_
*519 _0474_
*520 _0475_
*521 _0476_
*522 _0477_
*523 _0478_
*524 _0479_
*525 _0480_
*526 _0481_
*527 _0482_
*528 _0483_
*529 _0484_
*530 _0485_
*531 _0486_
*532 _0487_
*533 _0488_
*534 _0489_
*535 _0490_
*536 _0491_
*537 _0492_
*538 _0493_
*539 _0494_
*540 _0495_
*541 _0496_
*542 _0497_
*543 _0498_
*544 _0499_
*545 _0500_
*546 _0501_
*547 _0502_
*548 _0503_
*549 _0504_
*550 _0505_
*551 _0506_
*552 _0507_
*553 _0508_
*554 _0509_
*555 _0510_
*556 _0511_
*557 _0512_
*558 _0513_
*559 _0514_
*560 _0515_
*561 _0516_
*562 _0517_
*563 _0518_
*564 _0519_
*565 _0520_
*566 _0521_
*567 _0522_
*568 _0523_
*569 _0524_
*570 _0525_
*571 _0526_
*572 _0527_
*573 _0528_
*574 _0529_
*575 _0530_
*576 _0531_
*577 _0532_
*578 _0533_
*579 _0534_
*580 _0535_
*581 _0536_
*582 _0537_
*583 _0538_
*584 _0539_
*585 _0540_
*586 _0541_
*587 _0542_
*588 _0543_
*589 _0544_
*590 _0545_
*591 _0546_
*592 _0547_
*593 _0548_
*594 _0549_
*595 _0550_
*596 _0551_
*597 _0552_
*598 _0553_
*599 _0554_
*600 _0555_
*601 _0556_
*602 _0557_
*603 _0558_
*604 _0559_
*605 _0560_
*606 _0561_
*607 _0562_
*608 _0563_
*609 _0564_
*610 _0565_
*611 _0566_
*612 _0567_
*613 _0568_
*614 _0569_
*615 _0570_
*616 _0571_
*617 _0572_
*618 _0573_
*619 _0574_
*620 _0575_
*621 _0576_
*622 _0577_
*623 _0578_
*624 _0579_
*625 _0580_
*626 _0581_
*627 _0582_
*628 _0583_
*629 _0584_
*630 _0585_
*631 _0586_
*632 _0587_
*633 _0588_
*634 _0589_
*635 _0590_
*636 _0591_
*637 _0592_
*638 _0593_
*639 _0594_
*640 _0595_
*641 _0596_
*642 _0597_
*643 _0598_
*644 _0599_
*645 _0600_
*646 _0601_
*647 _0602_
*648 _0603_
*649 _0604_
*650 _0605_
*651 _0606_
*652 _0607_
*653 _0608_
*654 _0609_
*655 _0610_
*656 _0611_
*657 _0612_
*658 _0613_
*659 _0614_
*660 _0615_
*661 _0616_
*662 _0617_
*663 _0618_
*664 _0619_
*665 _0620_
*666 _0621_
*667 _0622_
*668 _0623_
*669 _0624_
*670 _0625_
*671 _0626_
*672 _0627_
*673 _0628_
*674 _0629_
*675 _0630_
*676 _0631_
*677 _0632_
*678 _0633_
*679 _0634_
*680 _0635_
*681 _0636_
*682 _0637_
*683 _0638_
*684 _0639_
*685 _0640_
*686 _0641_
*687 _0642_
*688 _0643_
*689 _0644_
*690 _0645_
*691 _0646_
*692 _0647_
*693 _0648_
*694 _0649_
*695 _0650_
*696 _0651_
*697 _0652_
*698 _0653_
*699 _0654_
*700 _0655_
*701 _0656_
*702 _0657_
*703 _0658_
*704 _0659_
*705 _0660_
*706 _0661_
*707 _0662_
*708 _0663_
*709 _0664_
*710 _0665_
*711 _0666_
*712 _0667_
*713 _0668_
*714 _0669_
*715 _0670_
*716 _0671_
*717 _0672_
*718 _0673_
*719 _0674_
*720 _0675_
*721 _0676_
*722 _0677_
*723 _0678_
*724 _0679_
*725 _0680_
*726 _0681_
*727 _0682_
*728 _0683_
*729 _0684_
*730 _0685_
*731 _0686_
*732 _0687_
*733 _0688_
*734 _0689_
*735 _0690_
*736 _0691_
*737 _0692_
*738 _0693_
*739 _0694_
*740 _0695_
*741 _0696_
*742 _0697_
*743 _0698_
*744 _0699_
*745 _0700_
*746 _0701_
*747 _0702_
*748 _0703_
*749 _0704_
*750 _0705_
*751 _0706_
*752 addr0_reg\[0\]
*753 addr0_reg\[1\]
*754 addr0_reg\[2\]
*755 addr0_reg\[3\]
*756 addr0_reg\[4\]
*757 addr0_reg\[5\]
*758 addr0_reg\[6\]
*759 addr0_reg\[7\]
*760 clknet_0_clk0
*761 clknet_2_0__leaf_clk0
*762 clknet_2_1__leaf_clk0
*763 clknet_2_2__leaf_clk0
*764 clknet_2_3__leaf_clk0
*765 net1
*766 net10
*767 net100
*768 net101
*769 net102
*770 net103
*771 net104
*772 net105
*773 net106
*774 net107
*775 net108
*776 net109
*777 net11
*778 net110
*779 net111
*780 net112
*781 net113
*782 net114
*783 net115
*784 net116
*785 net117
*786 net118
*787 net119
*788 net12
*789 net120
*790 net121
*791 net122
*792 net123
*793 net124
*794 net125
*795 net126
*796 net127
*797 net128
*798 net129
*799 net13
*800 net130
*801 net131
*802 net132
*803 net133
*804 net134
*805 net135
*806 net136
*807 net137
*808 net138
*809 net139
*810 net14
*811 net140
*812 net141
*813 net142
*814 net143
*815 net144
*816 net145
*817 net146
*818 net147
*819 net148
*820 net149
*821 net15
*822 net150
*823 net151
*824 net152
*825 net153
*826 net154
*827 net155
*828 net156
*829 net157
*830 net158
*831 net159
*832 net16
*833 net160
*834 net161
*835 net162
*836 net163
*837 net164
*838 net165
*839 net166
*840 net167
*841 net168
*842 net169
*843 net17
*844 net170
*845 net18
*846 net19
*847 net2
*848 net20
*849 net21
*850 net22
*851 net23
*852 net24
*853 net25
*854 net26
*855 net27
*856 net28
*857 net29
*858 net3
*859 net30
*860 net31
*861 net32
*862 net33
*863 net34
*864 net35
*865 net36
*866 net37
*867 net38
*868 net39
*869 net4
*870 net40
*871 net41
*872 net42
*873 net43
*874 net44
*875 net45
*876 net46
*877 net47
*878 net48
*879 net49
*880 net5
*881 net50
*882 net51
*883 net52
*884 net53
*885 net54
*886 net55
*887 net56
*888 net57
*889 net58
*890 net59
*891 net6
*892 net60
*893 net61
*894 net62
*895 net63
*896 net64
*897 net65
*898 net66
*899 net67
*900 net68
*901 net69
*902 net7
*903 net70
*904 net71
*905 net72
*906 net73
*907 net74
*908 net75
*909 net76
*910 net77
*911 net78
*912 net79
*913 net8
*914 net80
*915 net81
*916 net82
*917 net83
*918 net84
*919 net85
*920 net86
*921 net87
*922 net88
*923 net89
*924 net9
*925 net90
*926 net91
*927 net92
*928 net93
*929 net94
*930 net95
*931 net96
*932 net97
*933 net98
*934 net99
*935 ANTENNA_1
*936 ANTENNA_10
*937 ANTENNA_11
*938 ANTENNA_12
*939 ANTENNA_13
*940 ANTENNA_14
*941 ANTENNA_15
*942 ANTENNA_16
*943 ANTENNA_17
*944 ANTENNA_18
*945 ANTENNA_19
*946 ANTENNA_2
*947 ANTENNA_20
*948 ANTENNA_21
*949 ANTENNA_22
*950 ANTENNA_23
*951 ANTENNA_24
*952 ANTENNA_25
*953 ANTENNA_26
*954 ANTENNA_27
*955 ANTENNA_28
*956 ANTENNA_29
*957 ANTENNA_3
*958 ANTENNA_30
*959 ANTENNA_31
*960 ANTENNA_32
*961 ANTENNA_33
*962 ANTENNA_34
*963 ANTENNA_4
*964 ANTENNA_5
*965 ANTENNA_6
*966 ANTENNA_7
*967 ANTENNA_8
*968 ANTENNA_9
*969 FILLER_0_0_109
*970 FILLER_0_0_113
*971 FILLER_0_0_125
*972 FILLER_0_0_137
*973 FILLER_0_0_141
*974 FILLER_0_0_15
*975 FILLER_0_0_153
*976 FILLER_0_0_165
*977 FILLER_0_0_169
*978 FILLER_0_0_181
*979 FILLER_0_0_193
*980 FILLER_0_0_197
*981 FILLER_0_0_209
*982 FILLER_0_0_221
*983 FILLER_0_0_225
*984 FILLER_0_0_237
*985 FILLER_0_0_249
*986 FILLER_0_0_253
*987 FILLER_0_0_265
*988 FILLER_0_0_27
*989 FILLER_0_0_277
*990 FILLER_0_0_281
*991 FILLER_0_0_29
*992 FILLER_0_0_3
*993 FILLER_0_0_41
*994 FILLER_0_0_53
*995 FILLER_0_0_57
*996 FILLER_0_0_69
*997 FILLER_0_0_81
*998 FILLER_0_0_85
*999 FILLER_0_0_97
*1000 FILLER_0_10_107
*1001 FILLER_0_10_119
*1002 FILLER_0_10_131
*1003 FILLER_0_10_137
*1004 FILLER_0_10_141
*1005 FILLER_0_10_153
*1006 FILLER_0_10_165
*1007 FILLER_0_10_173
*1008 FILLER_0_10_18
*1009 FILLER_0_10_181
*1010 FILLER_0_10_189
*1011 FILLER_0_10_195
*1012 FILLER_0_10_197
*1013 FILLER_0_10_209
*1014 FILLER_0_10_221
*1015 FILLER_0_10_229
*1016 FILLER_0_10_233
*1017 FILLER_0_10_245
*1018 FILLER_0_10_251
*1019 FILLER_0_10_253
*1020 FILLER_0_10_26
*1021 FILLER_0_10_280
*1022 FILLER_0_10_29
*1023 FILLER_0_10_33
*1024 FILLER_0_10_6
*1025 FILLER_0_10_71
*1026 FILLER_0_10_83
*1027 FILLER_0_10_93
*1028 FILLER_0_11_106
*1029 FILLER_0_11_113
*1030 FILLER_0_11_124
*1031 FILLER_0_11_136
*1032 FILLER_0_11_148
*1033 FILLER_0_11_158
*1034 FILLER_0_11_164
*1035 FILLER_0_11_169
*1036 FILLER_0_11_189
*1037 FILLER_0_11_20
*1038 FILLER_0_11_203
*1039 FILLER_0_11_215
*1040 FILLER_0_11_237
*1041 FILLER_0_11_244
*1042 FILLER_0_11_248
*1043 FILLER_0_11_28
*1044 FILLER_0_11_281
*1045 FILLER_0_11_3
*1046 FILLER_0_11_38
*1047 FILLER_0_11_50
*1048 FILLER_0_11_57
*1049 FILLER_0_11_76
*1050 FILLER_0_11_88
*1051 FILLER_0_12_105
*1052 FILLER_0_12_117
*1053 FILLER_0_12_123
*1054 FILLER_0_12_129
*1055 FILLER_0_12_15
*1056 FILLER_0_12_154
*1057 FILLER_0_12_167
*1058 FILLER_0_12_179
*1059 FILLER_0_12_192
*1060 FILLER_0_12_197
*1061 FILLER_0_12_209
*1062 FILLER_0_12_221
*1063 FILLER_0_12_233
*1064 FILLER_0_12_241
*1065 FILLER_0_12_253
*1066 FILLER_0_12_27
*1067 FILLER_0_12_279
*1068 FILLER_0_12_29
*1069 FILLER_0_12_3
*1070 FILLER_0_12_41
*1071 FILLER_0_12_53
*1072 FILLER_0_12_61
*1073 FILLER_0_12_69
*1074 FILLER_0_12_81
*1075 FILLER_0_12_93
*1076 FILLER_0_13_100
*1077 FILLER_0_13_106
*1078 FILLER_0_13_113
*1079 FILLER_0_13_119
*1080 FILLER_0_13_126
*1081 FILLER_0_13_132
*1082 FILLER_0_13_138
*1083 FILLER_0_13_15
*1084 FILLER_0_13_152
*1085 FILLER_0_13_164
*1086 FILLER_0_13_169
*1087 FILLER_0_13_173
*1088 FILLER_0_13_180
*1089 FILLER_0_13_191
*1090 FILLER_0_13_195
*1091 FILLER_0_13_207
*1092 FILLER_0_13_213
*1093 FILLER_0_13_220
*1094 FILLER_0_13_23
*1095 FILLER_0_13_247
*1096 FILLER_0_13_255
*1097 FILLER_0_13_281
*1098 FILLER_0_13_3
*1099 FILLER_0_13_41
*1100 FILLER_0_13_50
*1101 FILLER_0_13_57
*1102 FILLER_0_13_71
*1103 FILLER_0_13_86
*1104 FILLER_0_13_94
*1105 FILLER_0_14_104
*1106 FILLER_0_14_116
*1107 FILLER_0_14_134
*1108 FILLER_0_14_147
*1109 FILLER_0_14_159
*1110 FILLER_0_14_163
*1111 FILLER_0_14_170
*1112 FILLER_0_14_182
*1113 FILLER_0_14_190
*1114 FILLER_0_14_197
*1115 FILLER_0_14_209
*1116 FILLER_0_14_217
*1117 FILLER_0_14_226
*1118 FILLER_0_14_234
*1119 FILLER_0_14_240
*1120 FILLER_0_14_253
*1121 FILLER_0_14_26
*1122 FILLER_0_14_280
*1123 FILLER_0_14_29
*1124 FILLER_0_14_3
*1125 FILLER_0_14_52
*1126 FILLER_0_14_67
*1127 FILLER_0_14_92
*1128 FILLER_0_15_106
*1129 FILLER_0_15_119
*1130 FILLER_0_15_130
*1131 FILLER_0_15_153
*1132 FILLER_0_15_160
*1133 FILLER_0_15_167
*1134 FILLER_0_15_179
*1135 FILLER_0_15_191
*1136 FILLER_0_15_203
*1137 FILLER_0_15_215
*1138 FILLER_0_15_223
*1139 FILLER_0_15_225
*1140 FILLER_0_15_231
*1141 FILLER_0_15_238
*1142 FILLER_0_15_245
*1143 FILLER_0_15_281
*1144 FILLER_0_15_3
*1145 FILLER_0_15_38
*1146 FILLER_0_15_7
*1147 FILLER_0_15_87
*1148 FILLER_0_16_105
*1149 FILLER_0_16_111
*1150 FILLER_0_16_117
*1151 FILLER_0_16_123
*1152 FILLER_0_16_136
*1153 FILLER_0_16_141
*1154 FILLER_0_16_153
*1155 FILLER_0_16_159
*1156 FILLER_0_16_172
*1157 FILLER_0_16_178
*1158 FILLER_0_16_184
*1159 FILLER_0_16_207
*1160 FILLER_0_16_221
*1161 FILLER_0_16_227
*1162 FILLER_0_16_233
*1163 FILLER_0_16_245
*1164 FILLER_0_16_251
*1165 FILLER_0_16_253
*1166 FILLER_0_16_259
*1167 FILLER_0_16_26
*1168 FILLER_0_16_280
*1169 FILLER_0_16_3
*1170 FILLER_0_16_50
*1171 FILLER_0_16_65
*1172 FILLER_0_16_74
*1173 FILLER_0_16_83
*1174 FILLER_0_16_85
*1175 FILLER_0_16_97
*1176 FILLER_0_17_105
*1177 FILLER_0_17_11
*1178 FILLER_0_17_111
*1179 FILLER_0_17_113
*1180 FILLER_0_17_119
*1181 FILLER_0_17_125
*1182 FILLER_0_17_133
*1183 FILLER_0_17_144
*1184 FILLER_0_17_153
*1185 FILLER_0_17_160
*1186 FILLER_0_17_167
*1187 FILLER_0_17_180
*1188 FILLER_0_17_184
*1189 FILLER_0_17_196
*1190 FILLER_0_17_209
*1191 FILLER_0_17_213
*1192 FILLER_0_17_220
*1193 FILLER_0_17_225
*1194 FILLER_0_17_23
*1195 FILLER_0_17_237
*1196 FILLER_0_17_253
*1197 FILLER_0_17_281
*1198 FILLER_0_17_3
*1199 FILLER_0_17_39
*1200 FILLER_0_17_47
*1201 FILLER_0_17_55
*1202 FILLER_0_17_57
*1203 FILLER_0_17_69
*1204 FILLER_0_17_81
*1205 FILLER_0_17_93
*1206 FILLER_0_18_107
*1207 FILLER_0_18_117
*1208 FILLER_0_18_125
*1209 FILLER_0_18_137
*1210 FILLER_0_18_148
*1211 FILLER_0_18_15
*1212 FILLER_0_18_152
*1213 FILLER_0_18_159
*1214 FILLER_0_18_166
*1215 FILLER_0_18_176
*1216 FILLER_0_18_19
*1217 FILLER_0_18_191
*1218 FILLER_0_18_195
*1219 FILLER_0_18_197
*1220 FILLER_0_18_208
*1221 FILLER_0_18_215
*1222 FILLER_0_18_222
*1223 FILLER_0_18_234
*1224 FILLER_0_18_24
*1225 FILLER_0_18_250
*1226 FILLER_0_18_259
*1227 FILLER_0_18_263
*1228 FILLER_0_18_280
*1229 FILLER_0_18_29
*1230 FILLER_0_18_3
*1231 FILLER_0_18_44
*1232 FILLER_0_18_52
*1233 FILLER_0_18_63
*1234 FILLER_0_18_75
*1235 FILLER_0_18_83
*1236 FILLER_0_18_85
*1237 FILLER_0_18_93
*1238 FILLER_0_19_100
*1239 FILLER_0_19_110
*1240 FILLER_0_19_118
*1241 FILLER_0_19_132
*1242 FILLER_0_19_140
*1243 FILLER_0_19_146
*1244 FILLER_0_19_152
*1245 FILLER_0_19_160
*1246 FILLER_0_19_167
*1247 FILLER_0_19_169
*1248 FILLER_0_19_177
*1249 FILLER_0_19_185
*1250 FILLER_0_19_197
*1251 FILLER_0_19_20
*1252 FILLER_0_19_231
*1253 FILLER_0_19_239
*1254 FILLER_0_19_257
*1255 FILLER_0_19_265
*1256 FILLER_0_19_278
*1257 FILLER_0_19_281
*1258 FILLER_0_19_3
*1259 FILLER_0_19_38
*1260 FILLER_0_19_46
*1261 FILLER_0_19_71
*1262 FILLER_0_19_88
*1263 FILLER_0_1_105
*1264 FILLER_0_1_111
*1265 FILLER_0_1_113
*1266 FILLER_0_1_125
*1267 FILLER_0_1_137
*1268 FILLER_0_1_149
*1269 FILLER_0_1_15
*1270 FILLER_0_1_161
*1271 FILLER_0_1_167
*1272 FILLER_0_1_169
*1273 FILLER_0_1_181
*1274 FILLER_0_1_193
*1275 FILLER_0_1_205
*1276 FILLER_0_1_217
*1277 FILLER_0_1_223
*1278 FILLER_0_1_225
*1279 FILLER_0_1_237
*1280 FILLER_0_1_249
*1281 FILLER_0_1_261
*1282 FILLER_0_1_27
*1283 FILLER_0_1_273
*1284 FILLER_0_1_279
*1285 FILLER_0_1_281
*1286 FILLER_0_1_3
*1287 FILLER_0_1_39
*1288 FILLER_0_1_51
*1289 FILLER_0_1_55
*1290 FILLER_0_1_57
*1291 FILLER_0_1_69
*1292 FILLER_0_1_81
*1293 FILLER_0_1_93
*1294 FILLER_0_20_108
*1295 FILLER_0_20_116
*1296 FILLER_0_20_126
*1297 FILLER_0_20_132
*1298 FILLER_0_20_141
*1299 FILLER_0_20_147
*1300 FILLER_0_20_161
*1301 FILLER_0_20_173
*1302 FILLER_0_20_18
*1303 FILLER_0_20_180
*1304 FILLER_0_20_192
*1305 FILLER_0_20_203
*1306 FILLER_0_20_215
*1307 FILLER_0_20_241
*1308 FILLER_0_20_247
*1309 FILLER_0_20_251
*1310 FILLER_0_20_259
*1311 FILLER_0_20_272
*1312 FILLER_0_20_29
*1313 FILLER_0_20_44
*1314 FILLER_0_20_6
*1315 FILLER_0_20_64
*1316 FILLER_0_20_76
*1317 FILLER_0_20_95
*1318 FILLER_0_21_106
*1319 FILLER_0_21_113
*1320 FILLER_0_21_121
*1321 FILLER_0_21_133
*1322 FILLER_0_21_15
*1323 FILLER_0_21_151
*1324 FILLER_0_21_163
*1325 FILLER_0_21_167
*1326 FILLER_0_21_175
*1327 FILLER_0_21_194
*1328 FILLER_0_21_206
*1329 FILLER_0_21_218
*1330 FILLER_0_21_225
*1331 FILLER_0_21_233
*1332 FILLER_0_21_239
*1333 FILLER_0_21_245
*1334 FILLER_0_21_257
*1335 FILLER_0_21_263
*1336 FILLER_0_21_281
*1337 FILLER_0_21_3
*1338 FILLER_0_21_35
*1339 FILLER_0_21_48
*1340 FILLER_0_21_72
*1341 FILLER_0_21_94
*1342 FILLER_0_22_103
*1343 FILLER_0_22_11
*1344 FILLER_0_22_117
*1345 FILLER_0_22_133
*1346 FILLER_0_22_139
*1347 FILLER_0_22_153
*1348 FILLER_0_22_165
*1349 FILLER_0_22_177
*1350 FILLER_0_22_183
*1351 FILLER_0_22_190
*1352 FILLER_0_22_197
*1353 FILLER_0_22_20
*1354 FILLER_0_22_209
*1355 FILLER_0_22_221
*1356 FILLER_0_22_242
*1357 FILLER_0_22_250
*1358 FILLER_0_22_253
*1359 FILLER_0_22_261
*1360 FILLER_0_22_27
*1361 FILLER_0_22_279
*1362 FILLER_0_22_29
*1363 FILLER_0_22_3
*1364 FILLER_0_22_35
*1365 FILLER_0_22_54
*1366 FILLER_0_22_76
*1367 FILLER_0_22_90
*1368 FILLER_0_22_96
*1369 FILLER_0_23_102
*1370 FILLER_0_23_108
*1371 FILLER_0_23_11
*1372 FILLER_0_23_113
*1373 FILLER_0_23_125
*1374 FILLER_0_23_137
*1375 FILLER_0_23_149
*1376 FILLER_0_23_161
*1377 FILLER_0_23_167
*1378 FILLER_0_23_169
*1379 FILLER_0_23_175
*1380 FILLER_0_23_181
*1381 FILLER_0_23_193
*1382 FILLER_0_23_205
*1383 FILLER_0_23_212
*1384 FILLER_0_23_222
*1385 FILLER_0_23_225
*1386 FILLER_0_23_242
*1387 FILLER_0_23_254
*1388 FILLER_0_23_262
*1389 FILLER_0_23_28
*1390 FILLER_0_23_281
*1391 FILLER_0_23_3
*1392 FILLER_0_23_33
*1393 FILLER_0_23_46
*1394 FILLER_0_23_65
*1395 FILLER_0_23_77
*1396 FILLER_0_23_89
*1397 FILLER_0_23_98
*1398 FILLER_0_24_107
*1399 FILLER_0_24_118
*1400 FILLER_0_24_130
*1401 FILLER_0_24_137
*1402 FILLER_0_24_141
*1403 FILLER_0_24_15
*1404 FILLER_0_24_153
*1405 FILLER_0_24_161
*1406 FILLER_0_24_169
*1407 FILLER_0_24_184
*1408 FILLER_0_24_197
*1409 FILLER_0_24_204
*1410 FILLER_0_24_216
*1411 FILLER_0_24_224
*1412 FILLER_0_24_232
*1413 FILLER_0_24_244
*1414 FILLER_0_24_280
*1415 FILLER_0_24_3
*1416 FILLER_0_24_44
*1417 FILLER_0_24_62
*1418 FILLER_0_24_74
*1419 FILLER_0_24_82
*1420 FILLER_0_24_85
*1421 FILLER_0_24_89
*1422 FILLER_0_25_110
*1423 FILLER_0_25_119
*1424 FILLER_0_25_125
*1425 FILLER_0_25_131
*1426 FILLER_0_25_139
*1427 FILLER_0_25_15
*1428 FILLER_0_25_156
*1429 FILLER_0_25_169
*1430 FILLER_0_25_179
*1431 FILLER_0_25_187
*1432 FILLER_0_25_195
*1433 FILLER_0_25_220
*1434 FILLER_0_25_225
*1435 FILLER_0_25_23
*1436 FILLER_0_25_237
*1437 FILLER_0_25_243
*1438 FILLER_0_25_255
*1439 FILLER_0_25_281
*1440 FILLER_0_25_3
*1441 FILLER_0_25_40
*1442 FILLER_0_25_57
*1443 FILLER_0_25_64
*1444 FILLER_0_25_70
*1445 FILLER_0_25_77
*1446 FILLER_0_25_85
*1447 FILLER_0_25_97
*1448 FILLER_0_26_102
*1449 FILLER_0_26_112
*1450 FILLER_0_26_131
*1451 FILLER_0_26_139
*1452 FILLER_0_26_167
*1453 FILLER_0_26_18
*1454 FILLER_0_26_180
*1455 FILLER_0_26_192
*1456 FILLER_0_26_197
*1457 FILLER_0_26_205
*1458 FILLER_0_26_211
*1459 FILLER_0_26_223
*1460 FILLER_0_26_240
*1461 FILLER_0_26_253
*1462 FILLER_0_26_26
*1463 FILLER_0_26_280
*1464 FILLER_0_26_29
*1465 FILLER_0_26_41
*1466 FILLER_0_26_53
*1467 FILLER_0_26_6
*1468 FILLER_0_26_70
*1469 FILLER_0_26_82
*1470 FILLER_0_26_85
*1471 FILLER_0_27_110
*1472 FILLER_0_27_113
*1473 FILLER_0_27_125
*1474 FILLER_0_27_137
*1475 FILLER_0_27_160
*1476 FILLER_0_27_169
*1477 FILLER_0_27_176
*1478 FILLER_0_27_190
*1479 FILLER_0_27_202
*1480 FILLER_0_27_208
*1481 FILLER_0_27_219
*1482 FILLER_0_27_223
*1483 FILLER_0_27_225
*1484 FILLER_0_27_235
*1485 FILLER_0_27_247
*1486 FILLER_0_27_258
*1487 FILLER_0_27_281
*1488 FILLER_0_27_3
*1489 FILLER_0_27_31
*1490 FILLER_0_27_37
*1491 FILLER_0_27_44
*1492 FILLER_0_27_52
*1493 FILLER_0_27_57
*1494 FILLER_0_27_65
*1495 FILLER_0_27_86
*1496 FILLER_0_27_98
*1497 FILLER_0_28_105
*1498 FILLER_0_28_113
*1499 FILLER_0_28_126
*1500 FILLER_0_28_135
*1501 FILLER_0_28_139
*1502 FILLER_0_28_147
*1503 FILLER_0_28_15
*1504 FILLER_0_28_163
*1505 FILLER_0_28_171
*1506 FILLER_0_28_181
*1507 FILLER_0_28_194
*1508 FILLER_0_28_202
*1509 FILLER_0_28_214
*1510 FILLER_0_28_226
*1511 FILLER_0_28_242
*1512 FILLER_0_28_25
*1513 FILLER_0_28_250
*1514 FILLER_0_28_253
*1515 FILLER_0_28_271
*1516 FILLER_0_28_281
*1517 FILLER_0_28_29
*1518 FILLER_0_28_3
*1519 FILLER_0_28_41
*1520 FILLER_0_28_45
*1521 FILLER_0_28_52
*1522 FILLER_0_28_64
*1523 FILLER_0_28_72
*1524 FILLER_0_28_85
*1525 FILLER_0_28_97
*1526 FILLER_0_29_108
*1527 FILLER_0_29_113
*1528 FILLER_0_29_125
*1529 FILLER_0_29_129
*1530 FILLER_0_29_135
*1531 FILLER_0_29_139
*1532 FILLER_0_29_145
*1533 FILLER_0_29_151
*1534 FILLER_0_29_157
*1535 FILLER_0_29_165
*1536 FILLER_0_29_174
*1537 FILLER_0_29_194
*1538 FILLER_0_29_213
*1539 FILLER_0_29_22
*1540 FILLER_0_29_245
*1541 FILLER_0_29_249
*1542 FILLER_0_29_257
*1543 FILLER_0_29_281
*1544 FILLER_0_29_3
*1545 FILLER_0_29_42
*1546 FILLER_0_29_54
*1547 FILLER_0_29_66
*1548 FILLER_0_29_70
*1549 FILLER_0_29_83
*1550 FILLER_0_29_92
*1551 FILLER_0_29_96
*1552 FILLER_0_2_109
*1553 FILLER_0_2_121
*1554 FILLER_0_2_133
*1555 FILLER_0_2_139
*1556 FILLER_0_2_141
*1557 FILLER_0_2_15
*1558 FILLER_0_2_153
*1559 FILLER_0_2_165
*1560 FILLER_0_2_177
*1561 FILLER_0_2_189
*1562 FILLER_0_2_195
*1563 FILLER_0_2_197
*1564 FILLER_0_2_209
*1565 FILLER_0_2_221
*1566 FILLER_0_2_233
*1567 FILLER_0_2_245
*1568 FILLER_0_2_251
*1569 FILLER_0_2_253
*1570 FILLER_0_2_265
*1571 FILLER_0_2_27
*1572 FILLER_0_2_277
*1573 FILLER_0_2_281
*1574 FILLER_0_2_29
*1575 FILLER_0_2_3
*1576 FILLER_0_2_41
*1577 FILLER_0_2_53
*1578 FILLER_0_2_65
*1579 FILLER_0_2_77
*1580 FILLER_0_2_83
*1581 FILLER_0_2_85
*1582 FILLER_0_2_97
*1583 FILLER_0_30_101
*1584 FILLER_0_30_109
*1585 FILLER_0_30_11
*1586 FILLER_0_30_123
*1587 FILLER_0_30_137
*1588 FILLER_0_30_141
*1589 FILLER_0_30_150
*1590 FILLER_0_30_163
*1591 FILLER_0_30_171
*1592 FILLER_0_30_179
*1593 FILLER_0_30_191
*1594 FILLER_0_30_195
*1595 FILLER_0_30_197
*1596 FILLER_0_30_211
*1597 FILLER_0_30_26
*1598 FILLER_0_30_264
*1599 FILLER_0_30_272
*1600 FILLER_0_30_3
*1601 FILLER_0_30_46
*1602 FILLER_0_30_52
*1603 FILLER_0_30_75
*1604 FILLER_0_30_83
*1605 FILLER_0_30_85
*1606 FILLER_0_30_97
*1607 FILLER_0_31_102
*1608 FILLER_0_31_110
*1609 FILLER_0_31_118
*1610 FILLER_0_31_122
*1611 FILLER_0_31_129
*1612 FILLER_0_31_140
*1613 FILLER_0_31_166
*1614 FILLER_0_31_169
*1615 FILLER_0_31_176
*1616 FILLER_0_31_188
*1617 FILLER_0_31_196
*1618 FILLER_0_31_202
*1619 FILLER_0_31_210
*1620 FILLER_0_31_217
*1621 FILLER_0_31_223
*1622 FILLER_0_31_242
*1623 FILLER_0_31_254
*1624 FILLER_0_31_26
*1625 FILLER_0_31_281
*1626 FILLER_0_31_48
*1627 FILLER_0_31_65
*1628 FILLER_0_31_80
*1629 FILLER_0_31_94
*1630 FILLER_0_32_113
*1631 FILLER_0_32_120
*1632 FILLER_0_32_132
*1633 FILLER_0_32_146
*1634 FILLER_0_32_160
*1635 FILLER_0_32_173
*1636 FILLER_0_32_185
*1637 FILLER_0_32_192
*1638 FILLER_0_32_197
*1639 FILLER_0_32_204
*1640 FILLER_0_32_219
*1641 FILLER_0_32_231
*1642 FILLER_0_32_239
*1643 FILLER_0_32_246
*1644 FILLER_0_32_253
*1645 FILLER_0_32_261
*1646 FILLER_0_32_280
*1647 FILLER_0_32_3
*1648 FILLER_0_32_35
*1649 FILLER_0_32_85
*1650 FILLER_0_32_93
*1651 FILLER_0_33_113
*1652 FILLER_0_33_117
*1653 FILLER_0_33_124
*1654 FILLER_0_33_136
*1655 FILLER_0_33_148
*1656 FILLER_0_33_15
*1657 FILLER_0_33_156
*1658 FILLER_0_33_179
*1659 FILLER_0_33_185
*1660 FILLER_0_33_197
*1661 FILLER_0_33_201
*1662 FILLER_0_33_208
*1663 FILLER_0_33_220
*1664 FILLER_0_33_231
*1665 FILLER_0_33_243
*1666 FILLER_0_33_256
*1667 FILLER_0_33_260
*1668 FILLER_0_33_281
*1669 FILLER_0_33_3
*1670 FILLER_0_33_31
*1671 FILLER_0_33_49
*1672 FILLER_0_33_55
*1673 FILLER_0_33_61
*1674 FILLER_0_33_83
*1675 FILLER_0_33_91
*1676 FILLER_0_34_100
*1677 FILLER_0_34_112
*1678 FILLER_0_34_120
*1679 FILLER_0_34_129
*1680 FILLER_0_34_137
*1681 FILLER_0_34_15
*1682 FILLER_0_34_152
*1683 FILLER_0_34_164
*1684 FILLER_0_34_176
*1685 FILLER_0_34_188
*1686 FILLER_0_34_209
*1687 FILLER_0_34_22
*1688 FILLER_0_34_221
*1689 FILLER_0_34_233
*1690 FILLER_0_34_245
*1691 FILLER_0_34_253
*1692 FILLER_0_34_259
*1693 FILLER_0_34_280
*1694 FILLER_0_34_29
*1695 FILLER_0_34_3
*1696 FILLER_0_34_44
*1697 FILLER_0_34_73
*1698 FILLER_0_34_82
*1699 FILLER_0_34_85
*1700 FILLER_0_35_111
*1701 FILLER_0_35_113
*1702 FILLER_0_35_125
*1703 FILLER_0_35_131
*1704 FILLER_0_35_137
*1705 FILLER_0_35_146
*1706 FILLER_0_35_15
*1707 FILLER_0_35_158
*1708 FILLER_0_35_166
*1709 FILLER_0_35_174
*1710 FILLER_0_35_184
*1711 FILLER_0_35_19
*1712 FILLER_0_35_203
*1713 FILLER_0_35_215
*1714 FILLER_0_35_279
*1715 FILLER_0_35_281
*1716 FILLER_0_35_3
*1717 FILLER_0_35_54
*1718 FILLER_0_35_57
*1719 FILLER_0_35_87
*1720 FILLER_0_35_99
*1721 FILLER_0_36_111
*1722 FILLER_0_36_123
*1723 FILLER_0_36_137
*1724 FILLER_0_36_141
*1725 FILLER_0_36_18
*1726 FILLER_0_36_193
*1727 FILLER_0_36_197
*1728 FILLER_0_36_206
*1729 FILLER_0_36_214
*1730 FILLER_0_36_222
*1731 FILLER_0_36_236
*1732 FILLER_0_36_251
*1733 FILLER_0_36_253
*1734 FILLER_0_36_280
*1735 FILLER_0_36_6
*1736 FILLER_0_36_83
*1737 FILLER_0_37_113
*1738 FILLER_0_37_126
*1739 FILLER_0_37_139
*1740 FILLER_0_37_146
*1741 FILLER_0_37_154
*1742 FILLER_0_37_164
*1743 FILLER_0_37_169
*1744 FILLER_0_37_177
*1745 FILLER_0_37_185
*1746 FILLER_0_37_197
*1747 FILLER_0_37_209
*1748 FILLER_0_37_217
*1749 FILLER_0_37_223
*1750 FILLER_0_37_225
*1751 FILLER_0_37_244
*1752 FILLER_0_37_257
*1753 FILLER_0_37_263
*1754 FILLER_0_37_281
*1755 FILLER_0_37_3
*1756 FILLER_0_37_49
*1757 FILLER_0_37_55
*1758 FILLER_0_37_57
*1759 FILLER_0_37_70
*1760 FILLER_0_38_107
*1761 FILLER_0_38_116
*1762 FILLER_0_38_128
*1763 FILLER_0_38_147
*1764 FILLER_0_38_15
*1765 FILLER_0_38_159
*1766 FILLER_0_38_167
*1767 FILLER_0_38_193
*1768 FILLER_0_38_203
*1769 FILLER_0_38_211
*1770 FILLER_0_38_217
*1771 FILLER_0_38_223
*1772 FILLER_0_38_235
*1773 FILLER_0_38_247
*1774 FILLER_0_38_251
*1775 FILLER_0_38_253
*1776 FILLER_0_38_259
*1777 FILLER_0_38_271
*1778 FILLER_0_38_3
*1779 FILLER_0_38_39
*1780 FILLER_0_38_57
*1781 FILLER_0_38_66
*1782 FILLER_0_38_77
*1783 FILLER_0_38_85
*1784 FILLER_0_38_95
*1785 FILLER_0_39_102
*1786 FILLER_0_39_110
*1787 FILLER_0_39_118
*1788 FILLER_0_39_126
*1789 FILLER_0_39_138
*1790 FILLER_0_39_150
*1791 FILLER_0_39_158
*1792 FILLER_0_39_166
*1793 FILLER_0_39_169
*1794 FILLER_0_39_191
*1795 FILLER_0_39_203
*1796 FILLER_0_39_215
*1797 FILLER_0_39_223
*1798 FILLER_0_39_225
*1799 FILLER_0_39_233
*1800 FILLER_0_39_245
*1801 FILLER_0_39_257