*SPEF "ieee 1481-1999"
*DESIGN "cust_rom"
*DATE "00:27:43 Thursday September 26, 2024"
*VENDOR "The OpenROAD Project"
*PROGRAM "OpenROAD"
*VERSION "b16bda7e82721d10566ff7e2b68f1ff0be9f9e38"
*DESIGN_FLOW "NAME_SCOPE LOCAL" "PIN_CAP NONE"
*DIVIDER /
*DELIMITER :
*BUS_DELIMITER []
*T_UNIT 1 NS
*C_UNIT 1 PF
*R_UNIT 1 OHM
*L_UNIT 1 HENRY

*NAME_MAP
*1 addr0[0]
*2 addr0[1]
*3 addr0[2]
*4 addr0[3]
*5 addr0[4]
*6 addr0[5]
*7 addr0[6]
*8 clk0
*9 cs0
*10 dout0[0]
*11 dout0[10]
*12 dout0[11]
*13 dout0[12]
*14 dout0[13]
*15 dout0[14]
*16 dout0[15]
*17 dout0[1]
*18 dout0[2]
*19 dout0[3]
*20 dout0[4]
*21 dout0[5]
*22 dout0[6]
*23 dout0[7]
*24 dout0[8]
*25 dout0[9]
*28 _000_
*29 _001_
*30 _002_
*31 _003_
*32 _004_
*33 _005_
*34 _006_
*35 _007_
*36 _008_
*37 _009_
*38 _010_
*39 _011_
*40 _012_
*41 _013_
*42 _014_
*43 _015_
*44 _016_
*45 _017_
*46 _018_
*47 _019_
*48 _020_
*49 _021_
*50 _022_
*51 _023_
*52 _024_
*53 _025_
*54 _026_
*55 _027_
*56 _028_
*57 _029_
*58 _030_
*59 _031_
*60 _032_
*61 _033_
*62 _034_
*63 _035_
*64 _036_
*65 _037_
*66 _038_
*67 _039_
*68 _040_
*69 _041_
*70 _042_
*71 _043_
*72 _044_
*73 _045_
*74 _046_
*75 _047_
*76 _048_
*77 _049_
*78 _050_
*79 _051_
*80 _052_
*81 _053_
*82 _054_
*83 _055_
*84 _056_
*85 _057_
*86 _058_
*87 _059_
*88 _060_
*89 _061_
*90 _062_
*91 _063_
*92 _064_
*93 _065_
*94 _066_
*95 _067_
*96 _068_
*97 _069_
*98 _070_
*99 _071_
*100 _072_
*101 _073_
*102 _074_
*103 _075_
*104 _076_
*105 _077_
*106 _078_
*107 _079_
*108 _080_
*109 _081_
*110 _082_
*111 _083_
*112 _084_
*113 _085_
*114 _086_
*115 _087_
*116 _088_
*117 _089_
*118 _090_
*119 _091_
*120 _092_
*121 _093_
*122 _094_
*123 _095_
*124 _096_
*125 _097_
*126 _098_
*127 _099_
*128 _100_
*129 _101_
*130 _102_
*131 _103_
*132 _104_
*133 _105_
*134 _106_
*135 _107_
*136 _108_
*137 _109_
*138 _110_
*139 _111_
*140 _112_
*141 _113_
*142 _114_
*143 _115_
*144 _116_
*145 _117_
*146 _118_
*147 _119_
*148 _120_
*149 _121_
*150 _122_
*151 _123_
*152 _124_
*153 _125_
*154 _126_
*155 _127_
*156 _128_
*157 _129_
*158 _130_
*159 _131_
*160 _132_
*161 _133_
*162 _134_
*163 _135_
*164 _136_
*165 _137_
*166 _138_
*167 _139_
*168 _140_
*169 _141_
*170 _142_
*171 _143_
*172 _144_
*173 _145_
*174 _146_
*175 _147_
*176 _148_
*177 _149_
*178 _150_
*179 _151_
*180 _152_
*181 _153_
*182 _154_
*183 _155_
*184 _156_
*185 _157_
*186 _158_
*187 _159_
*188 _160_
*189 _161_
*190 _162_
*191 _163_
*192 _164_
*193 _165_
*194 _166_
*195 _167_
*196 _168_
*197 _169_
*198 _170_
*199 _171_
*200 _172_
*201 _173_
*202 _174_
*203 _175_
*204 _176_
*205 _177_
*206 _178_
*207 _179_
*208 _180_
*209 _181_
*210 _182_
*211 _183_
*212 _184_
*213 _185_
*214 _186_
*215 _187_
*216 _188_
*217 _189_
*218 _190_
*219 _191_
*220 _192_
*221 _193_
*222 _194_
*223 _195_
*224 _196_
*225 _197_
*226 _198_
*227 _199_
*228 _200_
*229 _201_
*230 _202_
*231 _203_
*232 _204_
*233 _205_
*234 _206_
*235 _207_
*236 _208_
*237 _209_
*238 _210_
*239 _211_
*240 _212_
*241 _213_
*242 _214_
*243 _215_
*244 _216_
*245 _217_
*246 _218_
*247 _219_
*248 _220_
*249 _221_
*250 _222_
*251 _223_
*252 _224_
*253 _225_
*254 _226_
*255 _227_
*256 _228_
*257 _229_
*258 _230_
*259 _231_
*260 _232_
*261 _233_
*262 _234_
*263 _235_
*264 _236_
*265 _237_
*266 _238_
*267 _239_
*268 _240_
*269 addr0_reg\[0\]
*270 addr0_reg\[1\]
*271 addr0_reg\[2\]
*272 addr0_reg\[3\]
*273 addr0_reg\[4\]
*274 addr0_reg\[5\]
*275 addr0_reg\[6\]
*276 clknet_0_clk0
*277 clknet_1_0__leaf_clk0
*278 clknet_1_1__leaf_clk0
*279 net1
*280 net10
*281 net11
*282 net12
*283 net13
*284 net14
*285 net15
*286 net16
*287 net17
*288 net18
*289 net19
*290 net2
*291 net20
*292 net21
*293 net22
*294 net23
*295 net24
*296 net25
*297 net26
*298 net27
*299 net28
*300 net29
*301 net3
*302 net30
*303 net31
*304 net32
*305 net33
*306 net34
*307 net35
*308 net36
*309 net37
*310 net38
*311 net39
*312 net4
*313 net40
*314 net41
*315 net42
*316 net43
*317 net44
*318 net45
*319 net46
*320 net47
*321 net48
*322 net49
*323 net5
*324 net50
*325 net51
*326 net52
*327 net53
*328 net54
*329 net55
*330 net56
*331 net57
*332 net58
*333 net59
*334 net6
*335 net60
*336 net61
*337 net62
*338 net63
*339 net64
*340 net65
*341 net66
*342 net67
*343 net68
*344 net69
*345 net7
*346 net70
*347 net71
*348 net72
*349 net73
*350 net8
*351 net9
*352 FILLER_0_0_104
*353 FILLER_0_0_113
*354 FILLER_0_0_125
*355 FILLER_0_0_133
*356 FILLER_0_0_149
*357 FILLER_0_0_15
*358 FILLER_0_0_161
*359 FILLER_0_0_167
*360 FILLER_0_0_169
*361 FILLER_0_0_173
*362 FILLER_0_0_27
*363 FILLER_0_0_29
*364 FILLER_0_0_3
*365 FILLER_0_0_41
*366 FILLER_0_0_49
*367 FILLER_0_0_55
*368 FILLER_0_0_57
*369 FILLER_0_0_69
*370 FILLER_0_0_81
*371 FILLER_0_0_85
*372 FILLER_0_0_90
*373 FILLER_0_0_98
*374 FILLER_0_10_116
*375 FILLER_0_10_128
*376 FILLER_0_10_138
*377 FILLER_0_10_141
*378 FILLER_0_10_156
*379 FILLER_0_10_20
*380 FILLER_0_10_24
*381 FILLER_0_10_3
*382 FILLER_0_10_62
*383 FILLER_0_10_81
*384 FILLER_0_10_9
*385 FILLER_0_11_105
*386 FILLER_0_11_111
*387 FILLER_0_11_118
*388 FILLER_0_11_144
*389 FILLER_0_11_152
*390 FILLER_0_11_169
*391 FILLER_0_11_21
*392 FILLER_0_11_27
*393 FILLER_0_11_3
*394 FILLER_0_11_39
*395 FILLER_0_11_47
*396 FILLER_0_11_55
*397 FILLER_0_11_57
*398 FILLER_0_11_80
*399 FILLER_0_11_88
*400 FILLER_0_12_105
*401 FILLER_0_12_113
*402 FILLER_0_12_125
*403 FILLER_0_12_131
*404 FILLER_0_12_138
*405 FILLER_0_12_147
*406 FILLER_0_12_155
*407 FILLER_0_12_164
*408 FILLER_0_12_173
*409 FILLER_0_12_27
*410 FILLER_0_12_3
*411 FILLER_0_12_38
*412 FILLER_0_12_55
*413 FILLER_0_12_66
*414 FILLER_0_12_76
*415 FILLER_0_12_83
*416 FILLER_0_12_85
*417 FILLER_0_12_97
*418 FILLER_0_13_101
*419 FILLER_0_13_105
*420 FILLER_0_13_11
*421 FILLER_0_13_111
*422 FILLER_0_13_118
*423 FILLER_0_13_130
*424 FILLER_0_13_141
*425 FILLER_0_13_145
*426 FILLER_0_13_151
*427 FILLER_0_13_169
*428 FILLER_0_13_173
*429 FILLER_0_13_22
*430 FILLER_0_13_3
*431 FILLER_0_13_34
*432 FILLER_0_13_40
*433 FILLER_0_13_51
*434 FILLER_0_13_55
*435 FILLER_0_13_63
*436 FILLER_0_13_67
*437 FILLER_0_13_93
*438 FILLER_0_14_108
*439 FILLER_0_14_114
*440 FILLER_0_14_122
*441 FILLER_0_14_126
*442 FILLER_0_14_138
*443 FILLER_0_14_141
*444 FILLER_0_14_145
*445 FILLER_0_14_151
*446 FILLER_0_14_163
*447 FILLER_0_14_20
*448 FILLER_0_14_3
*449 FILLER_0_14_83
*450 FILLER_0_14_96
*451 FILLER_0_15_106
*452 FILLER_0_15_118
*453 FILLER_0_15_130
*454 FILLER_0_15_138
*455 FILLER_0_15_15
*456 FILLER_0_15_150
*457 FILLER_0_15_158
*458 FILLER_0_15_169
*459 FILLER_0_15_3
*460 FILLER_0_15_37
*461 FILLER_0_15_48
*462 FILLER_0_15_57
*463 FILLER_0_15_61
*464 FILLER_0_15_76
*465 FILLER_0_15_80
*466 FILLER_0_16_124
*467 FILLER_0_16_135
*468 FILLER_0_16_139
*469 FILLER_0_16_146
*470 FILLER_0_16_15
*471 FILLER_0_16_150
*472 FILLER_0_16_27
*473 FILLER_0_16_29
*474 FILLER_0_16_3
*475 FILLER_0_16_37
*476 FILLER_0_16_54
*477 FILLER_0_16_62
*478 FILLER_0_16_81
*479 FILLER_0_16_85
*480 FILLER_0_16_92
*481 FILLER_0_16_98
*482 FILLER_0_17_109
*483 FILLER_0_17_113
*484 FILLER_0_17_125
*485 FILLER_0_17_143
*486 FILLER_0_17_15
*487 FILLER_0_17_156
*488 FILLER_0_17_173
*489 FILLER_0_17_3
*490 FILLER_0_17_30
*491 FILLER_0_17_36
*492 FILLER_0_17_44
*493 FILLER_0_17_65
*494 FILLER_0_17_73
*495 FILLER_0_17_81
*496 FILLER_0_17_87
*497 FILLER_0_18_11
*498 FILLER_0_18_118
*499 FILLER_0_18_127
*500 FILLER_0_18_139
*501 FILLER_0_18_141
*502 FILLER_0_18_149
*503 FILLER_0_18_29
*504 FILLER_0_18_3
*505 FILLER_0_18_33
*506 FILLER_0_18_48
*507 FILLER_0_18_75
*508 FILLER_0_18_85
*509 FILLER_0_18_98
*510 FILLER_0_19_102
*511 FILLER_0_19_108
*512 FILLER_0_19_113
*513 FILLER_0_19_121
*514 FILLER_0_19_133
*515 FILLER_0_19_141
*516 FILLER_0_19_148
*517 FILLER_0_19_15
*518 FILLER_0_19_169
*519 FILLER_0_19_3
*520 FILLER_0_19_30
*521 FILLER_0_19_36
*522 FILLER_0_19_44
*523 FILLER_0_19_55
*524 FILLER_0_19_57
*525 FILLER_0_19_72
*526 FILLER_0_19_84
*527 FILLER_0_19_96
*528 FILLER_0_1_113
*529 FILLER_0_1_125
*530 FILLER_0_1_15
*531 FILLER_0_1_155
*532 FILLER_0_1_167
*533 FILLER_0_1_169
*534 FILLER_0_1_173
*535 FILLER_0_1_27
*536 FILLER_0_1_3
*537 FILLER_0_1_39
*538 FILLER_0_1_51
*539 FILLER_0_1_55
*540 FILLER_0_1_79
*541 FILLER_0_20_107
*542 FILLER_0_20_119
*543 FILLER_0_20_123
*544 FILLER_0_20_130
*545 FILLER_0_20_138
*546 FILLER_0_20_147
*547 FILLER_0_20_15
*548 FILLER_0_20_3
*549 FILLER_0_20_48
*550 FILLER_0_20_76
*551 FILLER_0_20_85
*552 FILLER_0_20_91
*553 FILLER_0_20_97
*554 FILLER_0_21_106
*555 FILLER_0_21_118
*556 FILLER_0_21_130
*557 FILLER_0_21_138
*558 FILLER_0_21_15
*559 FILLER_0_21_150
*560 FILLER_0_21_159
*561 FILLER_0_21_169
*562 FILLER_0_21_28
*563 FILLER_0_21_3
*564 FILLER_0_21_34
*565 FILLER_0_21_40
*566 FILLER_0_21_52
*567 FILLER_0_21_57
*568 FILLER_0_21_61
*569 FILLER_0_21_74
*570 FILLER_0_21_78
*571 FILLER_0_21_90
*572 FILLER_0_21_99
*573 FILLER_0_22_102
*574 FILLER_0_22_110
*575 FILLER_0_22_117
*576 FILLER_0_22_126
*577 FILLER_0_22_139
*578 FILLER_0_22_141
*579 FILLER_0_22_15
*580 FILLER_0_22_153
*581 FILLER_0_22_170
*582 FILLER_0_22_27
*583 FILLER_0_22_29
*584 FILLER_0_22_3
*585 FILLER_0_22_41
*586 FILLER_0_22_53
*587 FILLER_0_22_65
*588 FILLER_0_22_83
*589 FILLER_0_22_90
*590 FILLER_0_23_113
*591 FILLER_0_23_123
*592 FILLER_0_23_147
*593 FILLER_0_23_15
*594 FILLER_0_23_169
*595 FILLER_0_23_27
*596 FILLER_0_23_3
*597 FILLER_0_23_39
*598 FILLER_0_23_47
*599 FILLER_0_23_54
*600 FILLER_0_23_63
*601 FILLER_0_23_78
*602 FILLER_0_23_86
*603 FILLER_0_23_95
*604 FILLER_0_24_104
*605 FILLER_0_24_110
*606 FILLER_0_24_126
*607 FILLER_0_24_138
*608 FILLER_0_24_141
*609 FILLER_0_24_15
*610 FILLER_0_24_153
*611 FILLER_0_24_157
*612 FILLER_0_24_27
*613 FILLER_0_24_29
*614 FILLER_0_24_3
*615 FILLER_0_24_41
*616 FILLER_0_24_56
*617 FILLER_0_24_68
*618 FILLER_0_24_72
*619 FILLER_0_24_79
*620 FILLER_0_24_83
*621 FILLER_0_24_85
*622 FILLER_0_24_92
*623 FILLER_0_25_107
*624 FILLER_0_25_111
*625 FILLER_0_25_113
*626 FILLER_0_25_125
*627 FILLER_0_25_129
*628 FILLER_0_25_137
*629 FILLER_0_25_15
*630 FILLER_0_25_162
*631 FILLER_0_25_169
*632 FILLER_0_25_27
*633 FILLER_0_25_3
*634 FILLER_0_25_39
*635 FILLER_0_25_51
*636 FILLER_0_25_55
*637 FILLER_0_25_57
*638 FILLER_0_25_69
*639 FILLER_0_25_81
*640 FILLER_0_25_93
*641 FILLER_0_26_109
*642 FILLER_0_26_121
*643 FILLER_0_26_139
*644 FILLER_0_26_141
*645 FILLER_0_26_15
*646 FILLER_0_26_27
*647 FILLER_0_26_29
*648 FILLER_0_26_3
*649 FILLER_0_26_41
*650 FILLER_0_26_53
*651 FILLER_0_26_65
*652 FILLER_0_26_77
*653 FILLER_0_26_83
*654 FILLER_0_26_85
*655 FILLER_0_26_97
*656 FILLER_0_27_105
*657 FILLER_0_27_111
*658 FILLER_0_27_113
*659 FILLER_0_27_15
*660 FILLER_0_27_157
*661 FILLER_0_27_169
*662 FILLER_0_27_27
*663 FILLER_0_27_3
*664 FILLER_0_27_39
*665 FILLER_0_27_51
*666 FILLER_0_27_55
*667 FILLER_0_27_57
*668 FILLER_0_27_69
*669 FILLER_0_27_81
*670 FILLER_0_27_93
*671 FILLER_0_28_109
*672 FILLER_0_28_113
*673 FILLER_0_28_125
*674 FILLER_0_28_135
*675 FILLER_0_28_139
*676 FILLER_0_28_147
*677 FILLER_0_28_15
*678 FILLER_0_28_159
*679 FILLER_0_28_167
*680 FILLER_0_28_169
*681 FILLER_0_28_173
*682 FILLER_0_28_27
*683 FILLER_0_28_29
*684 FILLER_0_28_3
*685 FILLER_0_28_41
*686 FILLER_0_28_53
*687 FILLER_0_28_57
*688 FILLER_0_28_69
*689 FILLER_0_28_81
*690 FILLER_0_28_85
*691 FILLER_0_28_97
*692 FILLER_0_2_100
*693 FILLER_0_2_114
*694 FILLER_0_2_118
*695 FILLER_0_2_125
*696 FILLER_0_2_137
*697 FILLER_0_2_141
*698 FILLER_0_2_15
*699 FILLER_0_2_166
*700 FILLER_0_2_27
*701 FILLER_0_2_29
*702 FILLER_0_2_3
*703 FILLER_0_2_41
*704 FILLER_0_2_53
*705 FILLER_0_2_81
*706 FILLER_0_2_92
*707 FILLER_0_3_113
*708 FILLER_0_3_122
*709 FILLER_0_3_130
*710 FILLER_0_3_169
*711 FILLER_0_3_173
*712 FILLER_0_3_21
*713 FILLER_0_3_33
*714 FILLER_0_3_45
*715 FILLER_0_3_53
*716 FILLER_0_3_76
*717 FILLER_0_3_9
*718 FILLER_0_3_91
*719 FILLER_0_4_106
*720 FILLER_0_4_111
*721 FILLER_0_4_123
*722 FILLER_0_4_135
*723 FILLER_0_4_141
*724 FILLER_0_4_19
*725 FILLER_0_4_23
*726 FILLER_0_4_41
*727 FILLER_0_4_53
*728 FILLER_0_4_59
*729 FILLER_0_4_64
*730 FILLER_0_4_81
*731 FILLER_0_4_85
*732 FILLER_0_4_98
*733 FILLER_0_5_100
*734 FILLER_0_5_113
*735 FILLER_0_5_127
*736 FILLER_0_5_139
*737 FILLER_0_5_151
*738 FILLER_0_5_155
*739 FILLER_0_5_169
*740 FILLER_0_5_19
*741 FILLER_0_5_51
*742 FILLER_0_5_64
*743 FILLER_0_5_84
*744 FILLER_0_6_108
*745 FILLER_0_6_117
*746 FILLER_0_6_129
*747 FILLER_0_6_147
*748 FILLER_0_6_19
*749 FILLER_0_6_27
*750 FILLER_0_6_38
*751 FILLER_0_6_46
*752 FILLER_0_6_60
*753 FILLER_0_6_82
*754 FILLER_0_6_85
*755 FILLER_0_6_93
*756 FILLER_0_7_106
*757 FILLER_0_7_113
*758 FILLER_0_7_125
*759 FILLER_0_7_129
*760 FILLER_0_7_142
*761 FILLER_0_7_150
*762 FILLER_0_7_169
*763 FILLER_0_7_17
*764 FILLER_0_7_41
*765 FILLER_0_7_49
*766 FILLER_0_7_55
*767 FILLER_0_7_57
*768 FILLER_0_7_65
*769 FILLER_0_7_82
*770 FILLER_0_7_88
*771 FILLER_0_7_9
*772 FILLER_0_7_94
*773 FILLER_0_8_108
*774 FILLER_0_8_115
*775 FILLER_0_8_129
*776 FILLER_0_8_135
*777 FILLER_0_8_139
*778 FILLER_0_8_141
*779 FILLER_0_8_150
*780 FILLER_0_8_19
*781 FILLER_0_8_27
*782 FILLER_0_8_29
*783 FILLER_0_8_37
*784 FILLER_0_8_55
*785 FILLER_0_8_63
*786 FILLER_0_8_82
*787 FILLER_0_8_96
*788 FILLER_0_9_103
*789 FILLER_0_9_111
*790 FILLER_0_9_130
*791 FILLER_0_9_142
*792 FILLER_0_9_154
*793 FILLER_0_9_160
*794 FILLER_0_9_169
*795 FILLER_0_9_26
*796 FILLER_0_9_3
*797 FILLER_0_9_50
*798 FILLER_0_9_57
*799 FILLER_0_9_69
*800 FILLER_0_9_81
*801 FILLER_0_9_90
*802 PHY_EDGE_ROW_0_Left_29
*803 PHY_EDGE_ROW_0_Right_0
*804 PHY_EDGE_ROW_10_Left_39
*805 PHY_EDGE_ROW_10_Right_10
*806 PHY_EDGE_ROW_11_Left_40
*807 PHY_EDGE_ROW_11_Right_11
*808 PHY_EDGE_ROW_12_Left_41
*809 PHY_EDGE_ROW_12_Right_12
*810 PHY_EDGE_ROW_13_Left_42
*811 PHY_EDGE_ROW_13_Right_13
*812 PHY_EDGE_ROW_14_Left_43
*813 PHY_EDGE_ROW_14_Right_14
*814 PHY_EDGE_ROW_15_Left_44
*815 PHY_EDGE_ROW_15_Right_15
*816 PHY_EDGE_ROW_16_Left_45
*817 PHY_EDGE_ROW_16_Right_16
*818 PHY_EDGE_ROW_17_Left_46
*819 PHY_EDGE_ROW_17_Right_17
*820 PHY_EDGE_ROW_18_Left_47
*821 PHY_EDGE_ROW_18_Right_18
*822 PHY_EDGE_ROW_19_Left_48
*823 PHY_EDGE_ROW_19_Right_19
*824 PHY_EDGE_ROW_1_Left_30
*825 PHY_EDGE_ROW_1_Right_1
*826 PHY_EDGE_ROW_20_Left_49
*827 PHY_EDGE_ROW_20_Right_20
*828 PHY_EDGE_ROW_21_Left_50
*829 PHY_EDGE_ROW_21_Right_21
*830 PHY_EDGE_ROW_22_Left_51
*831 PHY_EDGE_ROW_22_Right_22
*832 PHY_EDGE_ROW_23_Left_52
*833 PHY_EDGE_ROW_23_Right_23
*834 PHY_EDGE_ROW_24_Left_53
*835 PHY_EDGE_ROW_24_Right_24
*836 PHY_EDGE_ROW_25_Left_54
*837 PHY_EDGE_ROW_25_Right_25
*838 PHY_EDGE_ROW_26_Left_55
*839 PHY_EDGE_ROW_26_Right_26
*840 PHY_EDGE_ROW_27_Left_56
*841 PHY_EDGE_ROW_27_Right_27
*842 PHY_EDGE_ROW_28_Left_57
*843 PHY_EDGE_ROW_28_Right_28
*844 PHY_EDGE_ROW_2_Left_31
*845 PHY_EDGE_ROW_2_Right_2
*846 PHY_EDGE_ROW_3_Left_32
*847 PHY_EDGE_ROW_3_Right_3
*848 PHY_EDGE_ROW_4_Left_33
*849 PHY_EDGE_ROW_4_Right_4
*850 PHY_EDGE_ROW_5_Left_34
*851 PHY_EDGE_ROW_5_Right_5
*852 PHY_EDGE_ROW_6_Left_35
*853 PHY_EDGE_ROW_6_Right_6
*854 PHY_EDGE_ROW_7_Left_36
*855 PHY_EDGE_ROW_7_Right_7
*856 PHY_EDGE_ROW_8_Left_37
*857 PHY_EDGE_ROW_8_Right_8
*858 PHY_EDGE_ROW_9_Left_38
*859 PHY_EDGE_ROW_9_Right_9
*860 TAP_TAPCELL_ROW_0_58
*861 TAP_TAPCELL_ROW_0_59
*862 TAP_TAPCELL_ROW_0_60
*863 TAP_TAPCELL_ROW_0_61
*864 TAP_TAPCELL_ROW_0_62
*865 TAP_TAPCELL_ROW_0_63
*866 TAP_TAPCELL_ROW_10_91
*867 TAP_TAPCELL_ROW_10_92
*868 TAP_TAPCELL_ROW_10_93
*869 TAP_TAPCELL_ROW_11_94
*870 TAP_TAPCELL_ROW_11_95
*871 TAP_TAPCELL_ROW_11_96
*872 TAP_TAPCELL_ROW_12_97
*873 TAP_TAPCELL_ROW_12_98
*874 TAP_TAPCELL_ROW_12_99
*875 TAP_TAPCELL_ROW_13_100
*876 TAP_TAPCELL_ROW_13_101
*877 TAP_TAPCELL_ROW_13_102
*878 TAP_TAPCELL_ROW_14_103
*879 TAP_TAPCELL_ROW_14_104
*880 TAP_TAPCELL_ROW_14_105
*881 TAP_TAPCELL_ROW_15_106
*882 TAP_TAPCELL_ROW_15_107
*883 TAP_TAPCELL_ROW_15_108
*884 TAP_TAPCELL_ROW_16_109
*885 TAP_TAPCELL_ROW_16_110
*886 TAP_TAPCELL_ROW_16_111
*887 TAP_TAPCELL_ROW_17_112
*888 TAP_TAPCELL_ROW_17_113
*889 TAP_TAPCELL_ROW_17_114
*890 TAP_TAPCELL_ROW_18_115
*891 TAP_TAPCELL_ROW_18_116
*892 TAP_TAPCELL_ROW_18_117
*893 TAP_TAPCELL_ROW_19_118
*894 TAP_TAPCELL_ROW_19_119
*895 TAP_TAPCELL_ROW_19_120
*896 TAP_TAPCELL_ROW_1_64
*897 TAP_TAPCELL_ROW_1_65
*898 TAP_TAPCELL_ROW_1_66
*899 TAP_TAPCELL_ROW_20_121
*900 TAP_TAPCELL_ROW_20_122
*901 TAP_TAPCELL_ROW_20_123
*902 TAP_TAPCELL_ROW_21_124
*903 TAP_TAPCELL_ROW_21_125
*904 TAP_TAPCELL_ROW_21_126
*905 TAP_TAPCELL_ROW_22_127
*906 TAP_TAPCELL_ROW_22_128
*907 TAP_TAPCELL_ROW_22_129
*908 TAP_TAPCELL_ROW_23_130
*909 TAP_TAPCELL_ROW_23_131
*910 TAP_TAPCELL_ROW_23_132
*911 TAP_TAPCELL_ROW_24_133
*912 TAP_TAPCELL_ROW_24_134
*913 TAP_TAPCELL_ROW_24_135
*914 TAP_TAPCELL_ROW_25_136
*915 TAP_TAPCELL_ROW_25_137
*916 TAP_TAPCELL_ROW_25_138
*917 TAP_TAPCELL_ROW_26_139
*918 TAP_TAPCELL_ROW_26_140
*919 TAP_TAPCELL_ROW_26_141
*920 TAP_TAPCELL_ROW_27_142
*921 TAP_TAPCELL_ROW_27_143
*922 TAP_TAPCELL_ROW_27_144
*923 TAP_TAPCELL_ROW_28_145
*924 TAP_TAPCELL_ROW_28_146
*925 TAP_TAPCELL_ROW_28_147
*926 TAP_TAPCELL_ROW_28_148
*927 TAP_TAPCELL_ROW_28_149
*928 TAP_TAPCELL_ROW_28_150
*929 TAP_TAPCELL_ROW_2_67
*930 TAP_TAPCELL_ROW_2_68
*931 TAP_TAPCELL_ROW_2_69
*932 TAP_TAPCELL_ROW_3_70
*933 TAP_TAPCELL_ROW_3_71
*934 TAP_TAPCELL_ROW_3_72
*935 TAP_TAPCELL_ROW_4_73
*936 TAP_TAPCELL_ROW_4_74
*937 TAP_TAPCELL_ROW_4_75
*938 TAP_TAPCELL_ROW_5_76
*939 TAP_TAPCELL_ROW_5_77
*940 TAP_TAPCELL_ROW_5_78
*941 TAP_TAPCELL_ROW_6_79
*942 TAP_TAPCELL_ROW_6_80
*943 TAP_TAPCELL_ROW_6_81
*944 TAP_TAPCELL_ROW_7_82
*945 TAP_TAPCELL_ROW_7_83
*946 TAP_TAPCELL_ROW_7_84
*947 TAP_TAPCELL_ROW_8_85
*948 TAP_TAPCELL_ROW_8_86
*949 TAP_TAPCELL_ROW_8_87
*950 TAP_TAPCELL_ROW_9_88
*951 TAP_TAPCELL_ROW_9_89
*952 TAP_TAPCELL_ROW_9_90
*953 _241_
*954 _242_
*955 _243_
*956 _244_
*957 _245_
*958 _246_
*959 _247_
*960 _248_
*961 _249_
*962 _250_
*963 _251_
*964 _252_
*965 _253_
*966 _254_
*967 _255_
*968 _256_
*969 _257_
*970 _258_
*971 _259_
*972 _260_
*973 _261_
*974 _262_
*975 _263_
*976 _264_
*977 _265_
*978 _266_
*979 _267_
*980 _268_
*981 _269_
*982 _270_
*983 _271_
*984 _272_
*985 _273_
*986 _274_
*987 _275_
*988 _276_
*989 _277_
*990 _278_
*991 _279_
*992 _280_
*993 _281_
*994 _282_
*995 _283_
*996 _284_
*997 _285_
*998 _286_
*999 _287_
*1000 _288_
*1001 _289_
*1002 _290_
*1003 _291_
*1004 _292_
*1005 _293_
*1006 _294_
*1007 _295_
*1008 _296_
*1009 _297_
*1010 _298_
*1011 _299_
*1012 _300_
*1013 _301_
*1014 _302_
*1015 _303_
*1016 _304_
*1017 _305_
*1018 _306_
*1019 _307_
*1020 _308_
*1021 _309_
*1022 _310_
*1023 _311_
*1024 _312_
*1025 _313_
*1026 _314_
*1027 _315_
*1028 _316_
*1029 _317_
*1030 _318_
*1031 _319_
*1032 _320_
*1033 _321_
*1034 _322_
*1035 _323_
*1036 _324_
*1037 _325_
*1038 _326_
*1039 _327_
*1040 _328_
*1041 _329_
*1042 _330_
*1043 _331_
*1044 _332_
*1045 _333_
*1046 _334_
*1047 _335_
*1048 _336_
*1049 _337_
*1050 _338_
*1051 _339_
*1052 _340_
*1053 _341_
*1054 _342_
*1055 _343_
*1056 _344_
*1057 _345_
*1058 _346_
*1059 _347_
*1060 _348_
*1061 _349_
*1062 _350_
*1063 _351_
*1064 _352_
*1065 _353_
*1066 _354_
*1067 _355_
*1068 _356_
*1069 _357_
*1070 _358_
*1071 _359_
*1072 _360_
*1073 _361_
*1074 _362_
*1075 _363_
*1076 _364_
*1077 _365_
*1078 _366_
*1079 _367_
*1080 _368_
*1081 _369_
*1082 _370_
*1083 _371_
*1084 _372_
*1085 _373_
*1086 _374_
*1087 _375_
*1088 _376_
*1089 _377_
*1090 _378_
*1091 _379_
*1092 _380_
*1093 _381_
*1094 _382_
*1095 _383_
*1096 _384_
*1097 _385_
*1098 _386_
*1099 _387_
*1100 _388_
*1101 _389_
*1102 _390_
*1103 _391_
*1104 _392_
*1105 _393_
*1106 _394_
*1107 _395_
*1108 _396_
*1109 _397_
*1110 _398_
*1111 _399_
*1112 _400_
*1113 _401_
*1114 _402_
*1115 _403_
*1116 _404_
*1117 _405_
*1118 _406_
*1119 _407_
*1120 _408_
*1121 _409_
*1122 _410_
*1123 _411_
*1124 _412_
*1125 _413_
*1126 _414_
*1127 _415_
*1128 _416_
*1129 _417_
*1130 _418_
*1131 _419_
*1132 _420_
*1133 _421_
*1134 _422_
*1135 _423_
*1136 _424_
*1137 _425_
*1138 _426_
*1139 _427_
*1140 _428_
*1141 _429_
*1142 _430_
*1143 _431_
*1144 _432_
*1145 _433_
*1146 _434_
*1147 _435_
*1148 _436_
*1149 _437_
*1150 _438_
*1151 _439_
*1152 _440_
*1153 _441_
*1154 _442_
*1155 _443_
*1156 _444_
*1157 _445_
*1158 _446_
*1159 _447_
*1160 _448_
*1161 _449_
*1162 _450_
*1163 _451_
*1164 _452_
*1165 _453_
*1166 _454_
*1167 _455_
*1168 _456_
*1169 _457_
*1170 _458_
*1171 _459_
*1172 _460_
*1173 _461_
*1174 _462_
*1175 _463_
*1176 _464_
*1177 _465_
*1178 _466_
*1179 _467_
*1180 _468_
*1181 _469_
*1182 _470_
*1183 _471_
*1184 _472_
*1185 _473_
*1186 _474_
*1187 _475_
*1188 _476_
*1189 _477_
*1190 _478_
*1191 _479_
*1192 _480_
*1193 _481_
*1194 _482_
*1195 _483_
*1196 _484_
*1197 _485_
*1198 _486_
*1199 _487_
*1200 _488_
*1201 _489_
*1202 _490_
*1203 _491_
*1204 _492_
*1205 _493_
*1206 _494_
*1207 _495_
*1208 _496_
*1209 _497_
*1210 _498_
*1211 _499_
*1212 _500_
*1213 _501_
*1214 _502_
*1215 _503_
*1216 _504_
*1217 clkbuf_0_clk0
*1218 clkbuf_1_0__f_clk0
*1219 clkbuf_1_1__f_clk0
*1220 clkload0
*1221 fanout25
*1222 fanout27
*1223 fanout28
*1224 fanout29
*1225 fanout30
*1226 fanout31
*1227 fanout32
*1228 fanout33
*1229 fanout34
*1230 fanout37
*1231 fanout38
*1232 fanout40
*1233 fanout41
*1234 fanout43
*1235 fanout44
*1236 fanout45
*1237 fanout46
*1238 fanout47
*1239 fanout48
*1240 fanout49
*1241 fanout50
*1242 fanout51
*1243 fanout52
*1244 fanout53
*1245 fanout54
*1246 fanout55
*1247 fanout56
*1248 fanout57
*1249 hold1
*1250 hold10
*1251 hold11
*1252 hold12
*1253 hold13
*1254 hold14
*1255 hold15
*1256 hold16
*1257 hold2
*1258 hold3
*1259 hold4
*1260 hold5
*1261 hold6
*1262 hold7
*1263 hold8
*1264 hold9
*1265 input1
*1266 input2
*1267 input3
*1268 input4
*1269 input5
*1270 input6
*1271 input7
*1272 input8
*1273 max_cap35
*1274 max_cap36
*1275 max_cap39
*1276 max_cap42
*1277 output10
*1278 output11
*1279 output12
*1280 output13
*1281 output14
*1282 output15
*1283 output16
*1284 output17
*1285 output18
*1286 output19
*1287 output20
*1288 output21
*1289 output22
*1290 output23
*1291 output24
*1292 output9
*1293 wire26

*PORTS
addr0[0] I
addr0[1] I
addr0[2] I
addr0[3] I
addr0[4] I
addr0[5] I
addr0[6] I
clk0 I
cs0 I
dout0[0] O
dout0[10] O
dout0[11] O
dout0[12] O
dout0[13] O
dout0[14] O
dout0[15] O
dout0[1] O
dout0[2] O
dout0[3] O
dout0[4] O
dout0[5] O
dout0[6] O
dout0[7] O
dout0[8] O
dout0[9] O

*D_NET *1 0.000657702
*CONN
*P addr0[0] I
*I *1265:A I *D sky130_fd_sc_hd__clkbuf_1
*CAP
1 addr0[0] 0.000292249
2 *1265:A 0.000292249
3 *1265:A *1267:A 7.32038e-05
4 *1265:A *1268:A 0
*RES
1 addr0[0] *1265:A 5.1381 
*END

*D_NET *2 0.00054062
*CONN
*P addr0[1] I
*I *1266:A I *D sky130_fd_sc_hd__clkbuf_1
*CAP
1 addr0[1] 0.000259065
2 *1266:A 0.000259065
3 *1266:A *1268:A 2.24901e-05
*RES
1 addr0[1] *1266:A 6.8343 
*END

*D_NET *3 0.000889354
*CONN
*P addr0[2] I
*I *1267:A I *D sky130_fd_sc_hd__clkbuf_1
*CAP
1 addr0[2] 0.000251586
2 *1267:A 0.000251586
3 *1267:A *1268:A 7.32038e-05
4 *1267:A *277:20 0.000161742
5 *1267:A *277:29 7.80329e-05
6 *1265:A *1267:A 7.32038e-05
*RES
1 addr0[2] *1267:A 7.7885 
*END

*D_NET *4 0.00103046
*CONN
*P addr0[3] I
*I *1268:A I *D sky130_fd_sc_hd__clkbuf_1
*CAP
1 addr0[3] 0.000427895
2 *1268:A 0.000427895
3 *1268:A *1195:CLK 0
4 *1268:A *1197:D 7.89767e-05
5 *1268:A *272:10 0
6 *1268:A *277:38 0
7 *1265:A *1268:A 0
8 *1266:A *1268:A 2.24901e-05
9 *1267:A *1268:A 7.32038e-05
*RES
1 addr0[3] *1268:A 7.9431 
*END

*D_NET *5 0.00087992
*CONN
*P addr0[4] I
*I *1269:A I *D sky130_fd_sc_hd__clkbuf_1
*CAP
1 addr0[4] 0.000430768
2 *1269:A 0.000430768
3 *1269:A *1198:D 1.83847e-05
*RES
1 addr0[4] *1269:A 11.04 
*END

*D_NET *6 0.000786235
*CONN
*P addr0[5] I
*I *1270:A I *D sky130_fd_sc_hd__clkbuf_1
*CAP
1 addr0[5] 0.000393118
2 *1270:A 0.000393118
*RES
1 addr0[5] *1270:A 10.35 
*END

*D_NET *7 0.000877785
*CONN
*P addr0[6] I
*I *1271:A I *D sky130_fd_sc_hd__clkbuf_1
*CAP
1 addr0[6] 0.000438892
2 *1271:A 0.000438892
*RES
1 addr0[6] *1271:A 11.04 
*END

*D_NET *8 0.00807771
*CONN
*P clk0 I
*I *1217:A I *D sky130_fd_sc_hd__clkbuf_16
*CAP
1 clk0 0.00307354
2 *1217:A 0.00307354
3 *1217:A *1006:A 0.000153193
4 *1217:A *1006:B 1.27404e-05
5 *1217:A *1009:B 0.00031814
6 *1217:A *1010:A 0
7 *1217:A *1010:C 4.66474e-05
8 *1217:A *1010:D 0
9 *1217:A *1110:B 0.000688652
10 *1217:A *1126:B 0
11 *1217:A *1126:C 0
12 *1217:A *1173:B 0
13 *1217:A *1173:D 0
14 *1217:A *1180:A 6.95505e-05
15 *1217:A *1180:B 0
16 *1217:A *1180:C 0
17 *1217:A *1181:D 5.72004e-05
18 *1217:A *80:8 0
19 *1217:A *82:80 0
20 *1217:A *230:32 0.000168035
21 *1217:A *230:62 0.00012072
22 *1217:A *234:116 0
23 *1217:A *258:16 0
24 *1217:A *261:30 0.000295748
*RES
1 clk0 *1217:A 33.1066 
*END

*D_NET *9 0.00114102
*CONN
*P cs0 I
*I *1272:A I *D sky130_fd_sc_hd__buf_1
*CAP
1 cs0 0.00040653
2 *1272:A 0.00040653
3 *1272:A dout0[13] 8.28789e-05
4 *1272:A dout0[9] 0.000144082
5 *1272:A *1291:A 0
6 *1272:A *350:25 0.000100998
*RES
1 cs0 *1272:A 7.15617 
*END

*D_NET *10 0.000581866
*CONN
*P dout0[0] O
*I *1292:X O *D sky130_fd_sc_hd__buf_2
*CAP
1 dout0[0] 0.000182625
2 *1292:X 0.000182625
3 dout0[0] dout0[12] 8.28789e-05
4 dout0[0] dout0[7] 7.3047e-05
5 dout0[0] *1248:A 6.06899e-05
*RES
1 *1292:X dout0[0] 5.86677 
*END

*D_NET *11 0.000496915
*CONN
*P dout0[10] O
*I *1277:X O *D sky130_fd_sc_hd__buf_2
*CAP
1 dout0[10] 0.000186583
2 *1277:X 0.000186583
3 dout0[10] dout0[3] 0
4 dout0[10] dout0[8] 8.23602e-05
5 dout0[10] *280:12 4.13879e-05
*RES
1 *1277:X dout0[10] 5.10177 
*END

*D_NET *12 0.000535741
*CONN
*P dout0[11] O
*I *1278:X O *D sky130_fd_sc_hd__buf_2
*CAP
1 dout0[11] 0.00022706
2 *1278:X 0.00022706
3 dout0[11] dout0[3] 8.16208e-05
4 dout0[11] dout0[6] 0
*RES
1 *1278:X dout0[11] 4.84677 
*END

*D_NET *13 0.000944985
*CONN
*P dout0[12] O
*I *1279:X O *D sky130_fd_sc_hd__buf_2
*CAP
1 dout0[12] 0.000353993
2 *1279:X 0.000353993
3 dout0[12] dout0[2] 0
4 dout0[12] *1248:A 3.84636e-05
5 dout0[12] *1279:A 0.000108647
6 dout0[12] *1284:A 7.00889e-06
7 dout0[0] dout0[12] 8.28789e-05
*RES
1 *1279:X dout0[12] 6.6081 
*END

*D_NET *14 0.000449723
*CONN
*P dout0[13] O
*I *1280:X O *D sky130_fd_sc_hd__buf_2
*CAP
1 dout0[13] 0.000135923
2 *1280:X 0.000135923
3 dout0[13] dout0[15] 7.39551e-05
4 dout0[13] *1292:A 2.10433e-05
5 *1272:A dout0[13] 8.28789e-05
*RES
1 *1280:X dout0[13] 4.84677 
*END

*D_NET *15 0.000813966
*CONN
*P dout0[14] O
*I *1281:X O *D sky130_fd_sc_hd__buf_2
*CAP
1 dout0[14] 0.000406983
2 *1281:X 0.000406983
*RES
1 *1281:X dout0[14] 10.185 
*END

*D_NET *16 0.000555392
*CONN
*P dout0[15] O
*I *1282:X O *D sky130_fd_sc_hd__buf_2
*CAP
1 dout0[15] 0.000209475
2 *1282:X 0.000209475
3 dout0[15] *1255:A 6.24871e-05
4 dout0[13] dout0[15] 7.39551e-05
*RES
1 *1282:X dout0[15] 5.35677 
*END

*D_NET *17 0.00103402
*CONN
*P dout0[1] O
*I *1283:X O *D sky130_fd_sc_hd__clkbuf_4
*CAP
1 dout0[1] 0.000517009
2 *1283:X 0.000517009
3 dout0[1] dout0[4] 0
*RES
1 *1283:X dout0[1] 12.225 
*END

*D_NET *18 0.000813973
*CONN
*P dout0[2] O
*I *1284:X O *D sky130_fd_sc_hd__buf_2
*CAP
1 dout0[2] 0.000305792
2 *1284:X 0.000305792
3 dout0[2] dout0[6] 6.95915e-05
4 dout0[2] *1248:A 0.000132798
5 dout0[12] dout0[2] 0
*RES
1 *1284:X dout0[2] 7.39677 
*END

*D_NET *19 0.000428654
*CONN
*P dout0[3] O
*I *1285:X O *D sky130_fd_sc_hd__buf_2
*CAP
1 dout0[3] 0.000173517
2 *1285:X 0.000173517
3 dout0[10] dout0[3] 0
4 dout0[11] dout0[3] 8.16208e-05
*RES
1 *1285:X dout0[3] 4.84677 
*END

*D_NET *20 0.00134753
*CONN
*P dout0[4] O
*I *1286:X O *D sky130_fd_sc_hd__clkbuf_4
*CAP
1 dout0[4] 0.000673764
2 *1286:X 0.000673764
3 dout0[1] dout0[4] 0
*RES
1 *1286:X dout0[4] 13.95 
*END

*D_NET *21 0.00134888
*CONN
*P dout0[5] O
*I *1287:X O *D sky130_fd_sc_hd__buf_2
*CAP
1 dout0[5] 0.000594416
2 *1287:X 0.000594416
3 dout0[5] dout0[8] 8.53361e-05
4 dout0[5] *1250:A 0
5 dout0[5] *1263:A 4.80182e-05
6 dout0[5] *291:12 2.66935e-05
*RES
1 *1287:X dout0[5] 9.0081 
*END

*D_NET *22 0.000901612
*CONN
*P dout0[6] O
*I *1288:X O *D sky130_fd_sc_hd__buf_2
*CAP
1 dout0[6] 0.00041601
2 *1288:X 0.00041601
3 dout0[6] *1248:A 0
4 dout0[11] dout0[6] 0
5 dout0[2] dout0[6] 6.95915e-05
*RES
1 *1288:X dout0[6] 8.87197 
*END

*D_NET *23 0.00102142
*CONN
*P dout0[7] O
*I *1289:X O *D sky130_fd_sc_hd__buf_2
*CAP
1 dout0[7] 0.000195524
2 *1289:X 0.000195524
3 dout0[7] dout0[9] 7.98965e-05
4 dout0[7] *1264:A 5.11559e-05
5 dout0[7] *1289:A 0.000186646
6 dout0[7] *1292:A 0.00023963
7 dout0[0] dout0[7] 7.3047e-05
*RES
1 *1289:X dout0[7] 7.39677 
*END

*D_NET *24 0.000487192
*CONN
*P dout0[8] O
*I *1290:X O *D sky130_fd_sc_hd__buf_2
*CAP
1 dout0[8] 0.000159748
2 *1290:X 0.000159748
3 dout0[10] dout0[8] 8.23602e-05
4 dout0[5] dout0[8] 8.53361e-05
*RES
1 *1290:X dout0[8] 5.35677 
*END

*D_NET *25 0.000762845
*CONN
*P dout0[9] O
*I *1291:X O *D sky130_fd_sc_hd__buf_2
*CAP
1 dout0[9] 0.000269433
2 *1291:X 0.000269433
3 dout0[7] dout0[9] 7.98965e-05
4 *1272:A dout0[9] 0.000144082
*RES
1 *1291:X dout0[9] 5.25463 
*END

*D_NET *28 0.00026085
*CONN
*I *1201:D I *D sky130_fd_sc_hd__dfxtp_1
*I *1090:X O *D sky130_fd_sc_hd__a22o_1
*CAP
1 *1201:D 0.000124596
2 *1090:X 0.000124596
3 *1201:D *1090:A2 1.16578e-05
4 *1201:D *1090:B2 0
*RES
1 *1090:X *1201:D 4.92875 
*END

*D_NET *29 0.000496049
*CONN
*I *1202:D I *D sky130_fd_sc_hd__dfxtp_1
*I *1105:X O *D sky130_fd_sc_hd__a22o_1
*CAP
1 *1202:D 0.000164551
2 *1105:X 0.000164551
3 *1202:D *1202:CLK 0.000166946
4 *1202:D *1253:A 0
5 *1202:D *1283:A 0
*RES
1 *1105:X *1202:D 10.3538 
*END

*D_NET *30 0.000268114
*CONN
*I *1203:D I *D sky130_fd_sc_hd__dfxtp_1
*I *1117:X O *D sky130_fd_sc_hd__a22o_1
*CAP
1 *1203:D 0.000120295
2 *1117:X 0.000120295
3 *1203:D *278:38 2.75229e-05
4 *1203:D *296:83 0
*RES
1 *1117:X *1203:D 4.92875 
*END

*D_NET *31 0.000285871
*CONN
*I *1204:D I *D sky130_fd_sc_hd__dfxtp_1
*I *1123:X O *D sky130_fd_sc_hd__a22o_1
*CAP
1 *1204:D 6.82296e-05
2 *1123:X 6.82296e-05
3 *1204:D *1105:A1 9.54399e-05
4 *1204:D *113:44 5.39718e-05
*RES
1 *1123:X *1204:D 8.80875 
*END

*D_NET *32 0.000498561
*CONN
*I *1205:D I *D sky130_fd_sc_hd__dfxtp_1
*I *1134:X O *D sky130_fd_sc_hd__a22o_1
*CAP
1 *1205:D 0.000242095
2 *1134:X 0.000242095
3 *1205:D *1105:B1 0
4 *1205:D *1105:B2 0
5 *1205:D *1134:A2 0
6 *1205:D *1253:A 0
7 *1205:D *1283:A 0
8 *1205:D *278:116 1.43717e-05
*RES
1 *1134:X *1205:D 11.0138 
*END

*D_NET *33 0.0008149
*CONN
*I *1206:D I *D sky130_fd_sc_hd__dfxtp_1
*I *1144:X O *D sky130_fd_sc_hd__a22o_1