* NGSPICE file created from cust_rom0.ext - technology: sky130A

* Black-box entry subcircuit for sky130_fd_sc_hd__tapvpwrvgnd_1 abstract view
.subckt sky130_fd_sc_hd__tapvpwrvgnd_1 VGND VPWR
.ends

* Black-box entry subcircuit for sky130_fd_sc_hd__decap_6 abstract view
.subckt sky130_fd_sc_hd__decap_6 VGND VNB VPB VPWR
.ends

* Black-box entry subcircuit for sky130_fd_sc_hd__decap_8 abstract view
.subckt sky130_fd_sc_hd__decap_8 VGND VNB VPB VPWR
.ends

* Black-box entry subcircuit for sky130_ef_sc_hd__decap_12 abstract view
.subckt sky130_ef_sc_hd__decap_12 VPWR VGND VPB VNB
.ends

* Black-box entry subcircuit for sky130_fd_sc_hd__fill_1 abstract view
.subckt sky130_fd_sc_hd__fill_1 VGND VNB VPB VPWR
.ends

* Black-box entry subcircuit for sky130_fd_sc_hd__or4_1 abstract view
.subckt sky130_fd_sc_hd__or4_1 A B C D VGND VNB VPB VPWR X
.ends

* Black-box entry subcircuit for sky130_fd_sc_hd__fill_2 abstract view
.subckt sky130_fd_sc_hd__fill_2 VGND VNB VPB VPWR
.ends

* Black-box entry subcircuit for sky130_fd_sc_hd__or2_2 abstract view
.subckt sky130_fd_sc_hd__or2_2 A B VGND VNB VPB VPWR X
.ends

* Black-box entry subcircuit for sky130_fd_sc_hd__clkbuf_2 abstract view
.subckt sky130_fd_sc_hd__clkbuf_2 A VGND VNB VPB VPWR X
.ends

* Black-box entry subcircuit for sky130_fd_sc_hd__buf_1 abstract view
.subckt sky130_fd_sc_hd__buf_1 A VGND VNB VPB VPWR X
.ends

* Black-box entry subcircuit for sky130_fd_sc_hd__dfxtp_1 abstract view
.subckt sky130_fd_sc_hd__dfxtp_1 CLK D VGND VNB VPB VPWR Q
.ends

* Black-box entry subcircuit for sky130_fd_sc_hd__a22o_1 abstract view
.subckt sky130_fd_sc_hd__a22o_1 A1 A2 B1 B2 VGND VNB VPB VPWR X
.ends

* Black-box entry subcircuit for sky130_fd_sc_hd__decap_3 abstract view
.subckt sky130_fd_sc_hd__decap_3 VGND VNB VPB VPWR
.ends

* Black-box entry subcircuit for sky130_fd_sc_hd__decap_4 abstract view
.subckt sky130_fd_sc_hd__decap_4 VGND VNB VPB VPWR
.ends

* Black-box entry subcircuit for sky130_fd_sc_hd__o21ba_1 abstract view
.subckt sky130_fd_sc_hd__o21ba_1 A1 A2 B1_N VGND VNB VPB VPWR X
.ends

* Black-box entry subcircuit for sky130_fd_sc_hd__clkbuf_1 abstract view
.subckt sky130_fd_sc_hd__clkbuf_1 A VGND VNB VPB VPWR X
.ends

* Black-box entry subcircuit for sky130_fd_sc_hd__and4b_1 abstract view
.subckt sky130_fd_sc_hd__and4b_1 A_N B C D VGND VNB VPB VPWR X
.ends

* Black-box entry subcircuit for sky130_fd_sc_hd__or2_1 abstract view
.subckt sky130_fd_sc_hd__or2_1 A B VGND VNB VPB VPWR X
.ends

* Black-box entry subcircuit for sky130_fd_sc_hd__or3_2 abstract view
.subckt sky130_fd_sc_hd__or3_2 A B C VGND VNB VPB VPWR X
.ends

* Black-box entry subcircuit for sky130_fd_sc_hd__or3_1 abstract view
.subckt sky130_fd_sc_hd__or3_1 A B C VGND VNB VPB VPWR X
.ends

* Black-box entry subcircuit for sky130_fd_sc_hd__dlygate4sd3_1 abstract view
.subckt sky130_fd_sc_hd__dlygate4sd3_1 A VGND VNB VPB VPWR X
.ends

* Black-box entry subcircuit for sky130_fd_sc_hd__diode_2 abstract view
.subckt sky130_fd_sc_hd__diode_2 DIODE VGND VNB VPB VPWR
.ends

* Black-box entry subcircuit for sky130_fd_sc_hd__and4bb_1 abstract view
.subckt sky130_fd_sc_hd__and4bb_1 A_N B_N C D VGND VNB VPB VPWR X
.ends

* Black-box entry subcircuit for sky130_fd_sc_hd__buf_2 abstract view
.subckt sky130_fd_sc_hd__buf_2 A VGND VNB VPB VPWR X
.ends

* Black-box entry subcircuit for sky130_fd_sc_hd__nor4b_1 abstract view
.subckt sky130_fd_sc_hd__nor4b_1 A B C D_N VGND VNB VPB VPWR Y
.ends

* Black-box entry subcircuit for sky130_fd_sc_hd__clkbuf_4 abstract view
.subckt sky130_fd_sc_hd__clkbuf_4 A VGND VNB VPB VPWR X
.ends

* Black-box entry subcircuit for sky130_fd_sc_hd__or4_2 abstract view
.subckt sky130_fd_sc_hd__or4_2 A B C D VGND VNB VPB VPWR X
.ends

* Black-box entry subcircuit for sky130_fd_sc_hd__and2b_1 abstract view
.subckt sky130_fd_sc_hd__and2b_1 A_N B VGND VNB VPB VPWR X
.ends

* Black-box entry subcircuit for sky130_fd_sc_hd__and4_1 abstract view
.subckt sky130_fd_sc_hd__and4_1 A B C D VGND VNB VPB VPWR X
.ends

* Black-box entry subcircuit for sky130_fd_sc_hd__inv_2 abstract view
.subckt sky130_fd_sc_hd__inv_2 A VGND VNB VPB VPWR Y
.ends

* Black-box entry subcircuit for sky130_fd_sc_hd__clkinv_4 abstract view
.subckt sky130_fd_sc_hd__clkinv_4 A VGND VNB VPB VPWR Y
.ends

* Black-box entry subcircuit for sky130_fd_sc_hd__bufinv_16 abstract view
.subckt sky130_fd_sc_hd__bufinv_16 A VGND VNB VPB VPWR Y
.ends

* Black-box entry subcircuit for sky130_fd_sc_hd__clkbuf_16 abstract view
.subckt sky130_fd_sc_hd__clkbuf_16 A VGND VNB VPB VPWR X
.ends

* Black-box entry subcircuit for sky130_fd_sc_hd__dlymetal6s2s_1 abstract view
.subckt sky130_fd_sc_hd__dlymetal6s2s_1 A VGND VNB VPB VPWR X
.ends

* Black-box entry subcircuit for sky130_fd_sc_hd__nor4_1 abstract view
.subckt sky130_fd_sc_hd__nor4_1 A B C D VGND VNB VPB VPWR Y
.ends

* Black-box entry subcircuit for sky130_fd_sc_hd__nor2_1 abstract view
.subckt sky130_fd_sc_hd__nor2_1 A B VGND VNB VPB VPWR Y
.ends

* Black-box entry subcircuit for sky130_fd_sc_hd__or4b_1 abstract view
.subckt sky130_fd_sc_hd__or4b_1 A B C D_N VGND VNB VPB VPWR X
.ends

* Black-box entry subcircuit for sky130_fd_sc_hd__o41a_1 abstract view
.subckt sky130_fd_sc_hd__o41a_1 A1 A2 A3 A4 B1 VGND VNB VPB VPWR X
.ends

* Black-box entry subcircuit for sky130_fd_sc_hd__nand2_1 abstract view
.subckt sky130_fd_sc_hd__nand2_1 A B VGND VNB VPB VPWR Y
.ends

* Black-box entry subcircuit for sky130_fd_sc_hd__or4bb_1 abstract view
.subckt sky130_fd_sc_hd__or4bb_1 A B C_N D_N VGND VNB VPB VPWR X
.ends

* Black-box entry subcircuit for sky130_fd_sc_hd__or4_4 abstract view
.subckt sky130_fd_sc_hd__or4_4 A B C D VGND VNB VPB VPWR X
.ends

* Black-box entry subcircuit for sky130_fd_sc_hd__conb_1 abstract view
.subckt sky130_fd_sc_hd__conb_1 VGND VNB VPB VPWR HI LO
.ends

.subckt cust_rom0 addr0[0] addr0[1] addr0[2] addr0[3] addr0[4] addr0[5] addr0[6] addr0[7]
+ clk0 cs0 dout0[0] dout0[10] dout0[11] dout0[12] dout0[13] dout0[14] dout0[15] dout0[16]
+ dout0[17] dout0[18] dout0[19] dout0[1] dout0[20] dout0[21] dout0[22] dout0[23] dout0[24]
+ dout0[25] dout0[26] dout0[27] dout0[28] dout0[29] dout0[2] dout0[30] dout0[31] dout0[3]
+ dout0[4] dout0[5] dout0[6] dout0[7] dout0[8] dout0[9] vccd1 vssd1
XTAP_TAPCELL_ROW_52_426 vssd1 vccd1 sky130_fd_sc_hd__tapvpwrvgnd_1
XFILLER_0_43_70 vssd1 vssd1 vccd1 vccd1 sky130_fd_sc_hd__decap_6
XFILLER_0_40_280 vssd1 vssd1 vccd1 vccd1 sky130_fd_sc_hd__decap_8
XFILLER_0_32_258 vssd1 vssd1 vccd1 vccd1 sky130_fd_sc_hd__decap_8
XFILLER_0_7_81 vccd1 vssd1 vccd1 vssd1 sky130_ef_sc_hd__decap_12
XFILLER_0_23_225 vccd1 vssd1 vccd1 vssd1 sky130_ef_sc_hd__decap_12
XFILLER_0_48_59 vssd1 vssd1 vccd1 vccd1 sky130_fd_sc_hd__fill_1
XFILLER_0_3_39 vccd1 vssd1 vccd1 vssd1 sky130_ef_sc_hd__decap_12
X_1270_ net265 net187 net162 net151 vssd1 vssd1 vccd1 vccd1 _0542_ sky130_fd_sc_hd__or4_1
XFILLER_0_46_306 vssd1 vssd1 vccd1 vccd1 sky130_fd_sc_hd__fill_2
XFILLER_0_13_84 vssd1 vssd1 vccd1 vccd1 sky130_fd_sc_hd__fill_1
X_0985_ net311 net229 vssd1 vssd1 vccd1 vccd1 _0272_ sky130_fd_sc_hd__or2_2
XFILLER_0_22_280 vccd1 vssd1 vccd1 vssd1 sky130_ef_sc_hd__decap_12
Xfanout127 _0220_ vssd1 vssd1 vccd1 vccd1 net127 sky130_fd_sc_hd__clkbuf_2
Xfanout116 net117 vssd1 vssd1 vccd1 vccd1 net116 sky130_fd_sc_hd__buf_1
X_1468_ clknet_2_3__leaf_clk0 _0027_ vssd1 vssd1 vccd1 vccd1 net29 sky130_fd_sc_hd__dfxtp_1
Xfanout105 _0238_ vssd1 vssd1 vccd1 vccd1 net105 sky130_fd_sc_hd__buf_1
Xfanout149 _0200_ vssd1 vssd1 vccd1 vccd1 net149 sky130_fd_sc_hd__buf_1
Xfanout138 _0210_ vssd1 vssd1 vccd1 vccd1 net138 sky130_fd_sc_hd__buf_1
X_1399_ net145 net78 _0265_ _0664_ vssd1 vssd1 vccd1 vccd1 _0665_ sky130_fd_sc_hd__or4_1
XFILLER_0_49_166 vssd1 vssd1 vccd1 vccd1 sky130_fd_sc_hd__fill_2
XFILLER_0_49_111 vssd1 vssd1 vccd1 vccd1 sky130_fd_sc_hd__fill_1
XFILLER_0_52_309 vccd1 vssd1 vccd1 vssd1 sky130_ef_sc_hd__decap_12
XFILLER_0_9_274 vssd1 vssd1 vccd1 vccd1 sky130_fd_sc_hd__decap_6
XFILLER_0_18_29 vssd1 vssd1 vccd1 vccd1 sky130_fd_sc_hd__decap_8
XTAP_TAPCELL_ROW_28_286 vssd1 vccd1 sky130_fd_sc_hd__tapvpwrvgnd_1
XFILLER_0_43_309 vssd1 vssd1 vccd1 vccd1 sky130_fd_sc_hd__fill_1
X_0770_ net548 net542 net535 net555 vssd1 vssd1 vccd1 vccd1 _0057_ sky130_fd_sc_hd__a22o_1
X_1322_ net314 net239 net128 net107 vssd1 vssd1 vccd1 vccd1 _0590_ sky130_fd_sc_hd__or4_1
X_1253_ _0459_ _0474_ _0515_ _0525_ vssd1 vssd1 vccd1 vccd1 _0526_ sky130_fd_sc_hd__or4_1
X_1184_ _0265_ _0411_ _0457_ _0458_ vssd1 vssd1 vccd1 vccd1 _0462_ sky130_fd_sc_hd__or4_1
XTAP_TAPCELL_ROW_19_231 vssd1 vccd1 sky130_fd_sc_hd__tapvpwrvgnd_1
XFILLER_0_46_158 vssd1 vssd1 vccd1 vccd1 sky130_fd_sc_hd__decap_3
XFILLER_0_40_60 vssd1 vssd1 vccd1 vccd1 sky130_fd_sc_hd__decap_3
XFILLER_0_34_309 vccd1 vssd1 vccd1 vssd1 sky130_ef_sc_hd__decap_12
XFILLER_0_6_233 vssd1 vssd1 vccd1 vccd1 sky130_fd_sc_hd__decap_4
XFILLER_0_6_277 vccd1 vssd1 vccd1 vssd1 sky130_ef_sc_hd__decap_12
X_0968_ net501 net371 net364 net492 vssd1 vssd1 vccd1 vccd1 _0255_ sky130_fd_sc_hd__a22o_1
XFILLER_0_49_91 vssd1 vssd1 vccd1 vccd1 sky130_fd_sc_hd__fill_2
X_0899_ net405 net346 net517 vssd1 vssd1 vccd1 vccd1 _0186_ sky130_fd_sc_hd__o21ba_1
XFILLER_0_4_93 vssd1 vssd1 vccd1 vccd1 sky130_fd_sc_hd__decap_3
XFILLER_0_37_125 vssd1 vssd1 vccd1 vccd1 sky130_fd_sc_hd__fill_1
XTAP_TAPCELL_ROW_25_267 vssd1 vccd1 sky130_fd_sc_hd__tapvpwrvgnd_1
XFILLER_0_52_139 vssd1 vssd1 vccd1 vccd1 sky130_fd_sc_hd__fill_1
XFILLER_0_37_169 vssd1 vssd1 vccd1 vccd1 sky130_fd_sc_hd__decap_8
Xfanout480 net481 vssd1 vssd1 vccd1 vccd1 net480 sky130_fd_sc_hd__clkbuf_1
XFILLER_0_0_29 vccd1 vssd1 vccd1 vssd1 sky130_ef_sc_hd__decap_12
Xfanout491 net493 vssd1 vssd1 vccd1 vccd1 net491 sky130_fd_sc_hd__buf_1
XTAP_TAPCELL_ROW_16_212 vssd1 vccd1 sky130_fd_sc_hd__tapvpwrvgnd_1
X_0822_ net429 net421 net414 net436 vssd1 vssd1 vccd1 vccd1 _0109_ sky130_fd_sc_hd__a22o_1
XFILLER_0_28_103 vccd1 vssd1 vccd1 vssd1 sky130_ef_sc_hd__decap_12
XFILLER_0_9_27 vssd1 vssd1 vccd1 vccd1 sky130_fd_sc_hd__decap_3
XFILLER_0_16_309 vssd1 vssd1 vccd1 vccd1 sky130_fd_sc_hd__decap_6
XFILLER_0_51_161 vssd1 vssd1 vccd1 vccd1 sky130_fd_sc_hd__decap_6
X_0753_ net585 net577 net600 net592 vssd1 vssd1 vccd1 vccd1 _0040_ sky130_fd_sc_hd__and4b_1
XFILLER_0_3_225 vssd1 vssd1 vccd1 vccd1 sky130_fd_sc_hd__decap_4
XFILLER_0_10_41 vccd1 vssd1 vccd1 vssd1 sky130_ef_sc_hd__decap_12
XFILLER_0_10_74 vssd1 vssd1 vccd1 vccd1 sky130_fd_sc_hd__decap_4
XTAP_TAPCELL_ROW_39_348 vssd1 vccd1 sky130_fd_sc_hd__tapvpwrvgnd_1
X_1236_ net558 net648 net41 _0510_ vssd1 vssd1 vccd1 vccd1 _0012_ sky130_fd_sc_hd__a22o_1
X_1305_ _0569_ _0574_ vssd1 vssd1 vccd1 vccd1 _0575_ sky130_fd_sc_hd__or2_1
X_1167_ net125 net118 _0227_ vssd1 vssd1 vccd1 vccd1 _0446_ sky130_fd_sc_hd__or3_2
X_1098_ net319 net316 net194 _0380_ vssd1 vssd1 vccd1 vccd1 _0381_ sky130_fd_sc_hd__or4_1
XFILLER_0_19_103 vssd1 vssd1 vccd1 vccd1 sky130_fd_sc_hd__decap_3
XFILLER_0_19_147 vssd1 vssd1 vccd1 vccd1 sky130_fd_sc_hd__decap_3
XFILLER_0_51_81 vccd1 vssd1 vccd1 vssd1 sky130_ef_sc_hd__decap_12
XFILLER_0_34_139 vssd1 vssd1 vccd1 vccd1 sky130_fd_sc_hd__fill_1
XFILLER_0_19_169 vssd1 vssd1 vccd1 vccd1 sky130_fd_sc_hd__fill_1
XTAP_TAPCELL_ROW_22_248 vssd1 vccd1 sky130_fd_sc_hd__tapvpwrvgnd_1
XFILLER_0_31_18 vccd1 vssd1 vccd1 vssd1 sky130_ef_sc_hd__decap_12
X_1021_ net221 net218 net217 vssd1 vssd1 vccd1 vccd1 _0307_ sky130_fd_sc_hd__or3_1
XFILLER_0_8_317 vssd1 vssd1 vccd1 vccd1 sky130_fd_sc_hd__fill_2
XFILLER_0_31_109 vssd1 vssd1 vccd1 vccd1 sky130_fd_sc_hd__decap_3
XFILLER_0_24_172 vccd1 vssd1 vccd1 vssd1 sky130_ef_sc_hd__decap_12
X_0805_ net263 net261 net259 vssd1 vssd1 vccd1 vccd1 _0092_ sky130_fd_sc_hd__or3_1
XFILLER_0_12_301 vssd1 vssd1 vccd1 vccd1 sky130_fd_sc_hd__fill_1
XFILLER_0_16_139 vssd1 vssd1 vccd1 vccd1 sky130_fd_sc_hd__fill_1
XFILLER_0_21_73 vssd1 vssd1 vccd1 vccd1 sky130_fd_sc_hd__decap_6
X_0736_ net333 net330 net327 vssd1 vssd1 vccd1 vccd1 _0708_ sky130_fd_sc_hd__or3_2
X_1219_ _0484_ _0486_ _0493_ _0494_ vssd1 vssd1 vccd1 vccd1 _0495_ sky130_fd_sc_hd__or4_1
XFILLER_0_34_3 vssd1 vssd1 vccd1 vccd1 sky130_fd_sc_hd__fill_1
XFILLER_0_15_150 vssd1 vssd1 vccd1 vccd1 sky130_fd_sc_hd__decap_8
Xhold30 net16 vssd1 vssd1 vccd1 vccd1 net660 sky130_fd_sc_hd__dlygate4sd3_1
XFILLER_0_26_29 vssd1 vssd1 vccd1 vccd1 sky130_fd_sc_hd__decap_6
XFILLER_0_42_39 vssd1 vssd1 vccd1 vccd1 sky130_fd_sc_hd__decap_6
XFILLER_0_53_223 vssd1 vssd1 vccd1 vccd1 sky130_fd_sc_hd__fill_1
XTAP_TAPCELL_ROW_41_365 vssd1 vccd1 sky130_fd_sc_hd__tapvpwrvgnd_1
XFILLER_0_38_242 vssd1 vssd1 vccd1 vccd1 sky130_fd_sc_hd__decap_8
XANTENNA_5 _0059_ vssd1 vssd1 vccd1 vccd1 sky130_fd_sc_hd__diode_2
XTAP_TAPCELL_ROW_49_410 vssd1 vccd1 sky130_fd_sc_hd__tapvpwrvgnd_1
XTAP_TAPCELL_ROW_32_310 vssd1 vccd1 sky130_fd_sc_hd__tapvpwrvgnd_1
XFILLER_0_32_83 vssd1 vssd1 vccd1 vccd1 sky130_fd_sc_hd__fill_1
XFILLER_0_32_61 vssd1 vssd1 vccd1 vccd1 sky130_fd_sc_hd__decap_3
XFILLER_0_29_297 vccd1 vssd1 vccd1 vssd1 sky130_ef_sc_hd__decap_12
X_1004_ net199 net198 net112 net105 vssd1 vssd1 vccd1 vccd1 _0291_ sky130_fd_sc_hd__or4_1
XFILLER_0_44_245 vssd1 vssd1 vccd1 vccd1 sky130_fd_sc_hd__decap_6
XFILLER_0_44_234 vssd1 vssd1 vccd1 vccd1 sky130_fd_sc_hd__decap_3
X_0719_ net600 net585 net578 net592 vssd1 vssd1 vccd1 vccd1 _0660_ sky130_fd_sc_hd__and4bb_1
XFILLER_0_12_197 vccd1 vssd1 vccd1 vssd1 sky130_ef_sc_hd__decap_12
XFILLER_0_35_245 vssd1 vssd1 vccd1 vccd1 sky130_fd_sc_hd__fill_1
Xoutput31 net31 vssd1 vssd1 vccd1 vccd1 dout0[29] sky130_fd_sc_hd__buf_2
Xoutput20 net20 vssd1 vssd1 vccd1 vccd1 dout0[19] sky130_fd_sc_hd__buf_2
XFILLER_0_53_27 vssd1 vssd1 vccd1 vccd1 sky130_fd_sc_hd__fill_1
XFILLER_0_26_234 vccd1 vssd1 vccd1 vssd1 sky130_ef_sc_hd__decap_12
Xfanout309 net310 vssd1 vssd1 vccd1 vccd1 net309 sky130_fd_sc_hd__buf_1
XFILLER_0_49_337 vssd1 vssd1 vccd1 vccd1 sky130_fd_sc_hd__decap_4
XTAP_TAPCELL_ROW_52_427 vssd1 vccd1 sky130_fd_sc_hd__tapvpwrvgnd_1
XFILLER_0_17_223 vssd1 vssd1 vccd1 vccd1 sky130_fd_sc_hd__fill_1
XFILLER_0_17_245 vssd1 vssd1 vccd1 vccd1 sky130_fd_sc_hd__fill_1
XFILLER_0_7_93 vssd1 vssd1 vccd1 vccd1 sky130_fd_sc_hd__decap_8
XFILLER_0_4_150 vssd1 vssd1 vccd1 vccd1 sky130_fd_sc_hd__decap_8
XFILLER_0_23_248 vccd1 vssd1 vccd1 vssd1 sky130_ef_sc_hd__decap_12
XFILLER_0_23_237 vssd1 vssd1 vccd1 vccd1 sky130_fd_sc_hd__decap_4
XFILLER_0_2_109 vccd1 vssd1 vccd1 vssd1 sky130_ef_sc_hd__decap_12
XFILLER_0_48_27 vssd1 vssd1 vccd1 vccd1 sky130_fd_sc_hd__fill_1
XFILLER_0_31_281 vssd1 vssd1 vccd1 vccd1 sky130_fd_sc_hd__decap_8
X_0984_ net309 net232 vssd1 vssd1 vccd1 vccd1 _0271_ sky130_fd_sc_hd__or2_1
XFILLER_0_14_259 vccd1 vssd1 vccd1 vssd1 sky130_ef_sc_hd__decap_12
XFILLER_0_22_292 vssd1 vssd1 vccd1 vccd1 sky130_fd_sc_hd__fill_2
Xfanout128 net129 vssd1 vssd1 vccd1 vccd1 net128 sky130_fd_sc_hd__buf_1
Xfanout106 _0238_ vssd1 vssd1 vccd1 vccd1 net106 sky130_fd_sc_hd__buf_1
X_1467_ clknet_2_3__leaf_clk0 _0026_ vssd1 vssd1 vccd1 vccd1 net28 sky130_fd_sc_hd__dfxtp_1
Xfanout139 _0210_ vssd1 vssd1 vccd1 vccd1 net139 sky130_fd_sc_hd__buf_1
Xfanout117 _0227_ vssd1 vssd1 vccd1 vccd1 net117 sky130_fd_sc_hd__buf_1
X_1398_ net223 net135 net134 net117 vssd1 vssd1 vccd1 vccd1 _0664_ sky130_fd_sc_hd__or4_1
XFILLER_0_49_189 vccd1 vssd1 vccd1 vssd1 sky130_ef_sc_hd__decap_12
XPHY_EDGE_ROW_19_Left_73 vssd1 vssd1 vccd1 vccd1 sky130_fd_sc_hd__decap_3
XFILLER_0_9_253 vccd1 vssd1 vccd1 vssd1 sky130_ef_sc_hd__decap_12
XFILLER_0_13_281 vccd1 vssd1 vccd1 vssd1 sky130_ef_sc_hd__decap_12
XTAP_TAPCELL_ROW_28_287 vssd1 vccd1 sky130_fd_sc_hd__tapvpwrvgnd_1
XFILLER_0_28_307 vssd1 vssd1 vccd1 vccd1 sky130_fd_sc_hd__fill_1
X_1321_ _0150_ _0294_ vssd1 vssd1 vccd1 vccd1 _0589_ sky130_fd_sc_hd__or2_1
X_1252_ net172 net91 net85 vssd1 vssd1 vccd1 vccd1 _0525_ sky130_fd_sc_hd__or3_1
X_1183_ net290 _0074_ vssd1 vssd1 vccd1 vccd1 _0461_ sky130_fd_sc_hd__or2_1
XTAP_TAPCELL_ROW_19_232 vssd1 vccd1 sky130_fd_sc_hd__tapvpwrvgnd_1
XFILLER_0_6_289 vccd1 vssd1 vccd1 vssd1 sky130_ef_sc_hd__decap_12
X_0967_ net466 net372 net365 net457 vssd1 vssd1 vccd1 vccd1 _0254_ sky130_fd_sc_hd__a22o_1
XFILLER_0_10_251 vssd1 vssd1 vccd1 vccd1 sky130_fd_sc_hd__fill_1
XPHY_EDGE_ROW_12_Right_12 vssd1 vssd1 vccd1 vccd1 sky130_fd_sc_hd__decap_3
X_0898_ net500 net379 net346 net493 vssd1 vssd1 vccd1 vccd1 _0185_ sky130_fd_sc_hd__a22o_1
XFILLER_0_4_83 vssd1 vssd1 vccd1 vccd1 sky130_fd_sc_hd__fill_1
XPHY_EDGE_ROW_21_Right_21 vssd1 vssd1 vccd1 vccd1 sky130_fd_sc_hd__decap_3
XTAP_TAPCELL_ROW_25_268 vssd1 vccd1 sky130_fd_sc_hd__tapvpwrvgnd_1
XPHY_EDGE_ROW_4_Left_58 vssd1 vssd1 vccd1 vccd1 sky130_fd_sc_hd__decap_3
XFILLER_0_18_340 vssd1 vssd1 vccd1 vccd1 sky130_fd_sc_hd__fill_2
XPHY_EDGE_ROW_30_Right_30 vssd1 vssd1 vccd1 vccd1 sky130_fd_sc_hd__decap_3
Xfanout481 net482 vssd1 vssd1 vccd1 vccd1 net481 sky130_fd_sc_hd__clkbuf_1
Xfanout470 net472 vssd1 vssd1 vccd1 vccd1 net470 sky130_fd_sc_hd__buf_1
Xfanout492 net493 vssd1 vssd1 vccd1 vccd1 net492 sky130_fd_sc_hd__buf_1
XFILLER_0_28_115 vssd1 vssd1 vccd1 vccd1 sky130_fd_sc_hd__decap_4
XTAP_TAPCELL_ROW_16_213 vssd1 vccd1 sky130_fd_sc_hd__tapvpwrvgnd_1
X_0752_ net594 net602 net577 net587 vssd1 vssd1 vccd1 vccd1 _0039_ sky130_fd_sc_hd__nor4b_1
XFILLER_0_24_321 vssd1 vssd1 vccd1 vccd1 sky130_fd_sc_hd__decap_4
X_0821_ net248 net246 net245 net242 vssd1 vssd1 vccd1 vccd1 _0108_ sky130_fd_sc_hd__or4_1
XFILLER_0_10_53 vssd1 vssd1 vccd1 vccd1 sky130_fd_sc_hd__fill_2
XTAP_TAPCELL_ROW_39_349 vssd1 vccd1 sky130_fd_sc_hd__tapvpwrvgnd_1
X_1304_ _0485_ _0570_ _0571_ _0573_ vssd1 vssd1 vccd1 vccd1 _0574_ sky130_fd_sc_hd__or4_1
X_1235_ _0503_ _0505_ _0507_ _0509_ vssd1 vssd1 vccd1 vccd1 _0510_ sky130_fd_sc_hd__or4_1
XFILLER_0_19_95 vssd1 vssd1 vccd1 vccd1 sky130_fd_sc_hd__decap_8
X_1166_ _0441_ _0442_ _0443_ _0444_ vssd1 vssd1 vccd1 vccd1 _0445_ sky130_fd_sc_hd__or4_1
X_1097_ net255 net236 net234 net139 vssd1 vssd1 vccd1 vccd1 _0380_ sky130_fd_sc_hd__or4_1
XTAP_TAPCELL_ROW_22_249 vssd1 vccd1 sky130_fd_sc_hd__tapvpwrvgnd_1
XFILLER_0_51_93 vccd1 vssd1 vccd1 vssd1 sky130_ef_sc_hd__decap_12
XFILLER_0_42_195 vssd1 vssd1 vccd1 vccd1 sky130_fd_sc_hd__fill_1
XFILLER_0_15_310 vssd1 vssd1 vccd1 vccd1 sky130_fd_sc_hd__decap_6
X_1020_ net166 net164 net82 vssd1 vssd1 vccd1 vccd1 _0306_ sky130_fd_sc_hd__or3_2
X_0735_ net557 net486 net478 net544 vssd1 vssd1 vccd1 vccd1 _0707_ sky130_fd_sc_hd__a22o_1
XFILLER_0_24_184 vccd1 vssd1 vccd1 vssd1 sky130_ef_sc_hd__decap_12
X_0804_ net545 net402 net397 net532 vssd1 vssd1 vccd1 vccd1 _0091_ sky130_fd_sc_hd__a22o_1
XFILLER_0_46_60 vssd1 vssd1 vccd1 vccd1 sky130_fd_sc_hd__fill_2
X_1149_ net322 net316 net315 vssd1 vssd1 vccd1 vccd1 _0429_ sky130_fd_sc_hd__or3_1
X_1218_ net239 _0112_ _0428_ _0487_ vssd1 vssd1 vccd1 vccd1 _0494_ sky130_fd_sc_hd__or4_1
XFILLER_0_27_3 vssd1 vssd1 vccd1 vccd1 sky130_fd_sc_hd__decap_8
XFILLER_0_1_51 vssd1 vssd1 vccd1 vccd1 sky130_fd_sc_hd__decap_4
Xhold31 net32 vssd1 vssd1 vccd1 vccd1 net661 sky130_fd_sc_hd__dlygate4sd3_1
Xhold20 net26 vssd1 vssd1 vccd1 vccd1 net650 sky130_fd_sc_hd__dlygate4sd3_1
XFILLER_0_42_29 vssd1 vssd1 vccd1 vccd1 sky130_fd_sc_hd__fill_1
XFILLER_0_38_221 vssd1 vssd1 vccd1 vccd1 sky130_fd_sc_hd__fill_1
XFILLER_0_53_268 vccd1 vssd1 vccd1 vssd1 sky130_ef_sc_hd__decap_12
XANTENNA_6 _0071_ vssd1 vssd1 vccd1 vccd1 sky130_fd_sc_hd__diode_2
XPHY_EDGE_ROW_7_Left_61 vssd1 vssd1 vccd1 vccd1 sky130_fd_sc_hd__decap_3
XFILLER_0_6_29 vccd1 vssd1 vccd1 vssd1 sky130_ef_sc_hd__decap_12
XTAP_TAPCELL_ROW_49_411 vssd1 vccd1 sky130_fd_sc_hd__tapvpwrvgnd_1
X_1003_ net112 net105 vssd1 vssd1 vccd1 vccd1 _0290_ sky130_fd_sc_hd__or2_1
XFILLER_0_16_85 vccd1 vssd1 vccd1 vssd1 sky130_ef_sc_hd__decap_12
XTAP_TAPCELL_ROW_32_311 vssd1 vccd1 sky130_fd_sc_hd__tapvpwrvgnd_1
XFILLER_0_29_276 vssd1 vssd1 vccd1 vccd1 sky130_fd_sc_hd__decap_4
XFILLER_0_29_221 vssd1 vssd1 vccd1 vccd1 sky130_fd_sc_hd__decap_3
XFILLER_0_8_126 vssd1 vssd1 vccd1 vccd1 sky130_fd_sc_hd__fill_1
X_0718_ net614 net620 net626 net607 vssd1 vssd1 vccd1 vccd1 _0649_ sky130_fd_sc_hd__and4bb_1
XFILLER_0_4_321 vccd1 vssd1 vccd1 vssd1 sky130_ef_sc_hd__decap_12
XPHY_EDGE_ROW_6_Right_6 vssd1 vssd1 vccd1 vccd1 sky130_fd_sc_hd__decap_3
Xoutput32 net32 vssd1 vssd1 vccd1 vccd1 dout0[2] sky130_fd_sc_hd__clkbuf_4
Xoutput21 net21 vssd1 vssd1 vccd1 vccd1 dout0[1] sky130_fd_sc_hd__buf_2
XPHY_EDGE_ROW_33_Left_87 vssd1 vssd1 vccd1 vccd1 sky130_fd_sc_hd__decap_3
Xoutput10 net10 vssd1 vssd1 vccd1 vccd1 dout0[0] sky130_fd_sc_hd__buf_2
XFILLER_0_26_246 vssd1 vssd1 vccd1 vccd1 sky130_fd_sc_hd__decap_6
XFILLER_0_5_107 vssd1 vssd1 vccd1 vccd1 sky130_fd_sc_hd__decap_4
XFILLER_0_26_268 vccd1 vssd1 vccd1 vssd1 sky130_ef_sc_hd__decap_12
XFILLER_0_1_335 vssd1 vssd1 vccd1 vccd1 sky130_fd_sc_hd__fill_1
XTAP_TAPCELL_ROW_52_428 vssd1 vccd1 sky130_fd_sc_hd__tapvpwrvgnd_1
XFILLER_0_49_305 vccd1 vssd1 vccd1 vssd1 sky130_ef_sc_hd__decap_12
XFILLER_0_17_279 vssd1 vssd1 vccd1 vccd1 sky130_fd_sc_hd__fill_1
XFILLER_0_23_205 vssd1 vssd1 vccd1 vccd1 sky130_fd_sc_hd__decap_8
X_0983_ _0077_ _0117_ vssd1 vssd1 vccd1 vccd1 _0270_ sky130_fd_sc_hd__or2_1
XFILLER_0_13_42 vssd1 vssd1 vccd1 vccd1 sky130_fd_sc_hd__fill_1
Xfanout118 net120 vssd1 vssd1 vccd1 vccd1 net118 sky130_fd_sc_hd__buf_1
Xfanout129 net130 vssd1 vssd1 vccd1 vccd1 net129 sky130_fd_sc_hd__buf_1
Xfanout107 net109 vssd1 vssd1 vccd1 vccd1 net107 sky130_fd_sc_hd__buf_1
X_1397_ _0386_ _0430_ vssd1 vssd1 vccd1 vccd1 _0663_ sky130_fd_sc_hd__or2_1
X_1466_ clknet_2_3__leaf_clk0 _0025_ vssd1 vssd1 vccd1 vccd1 net27 sky130_fd_sc_hd__dfxtp_1
XFILLER_0_9_265 vssd1 vssd1 vccd1 vccd1 sky130_fd_sc_hd__decap_4
XFILLER_0_9_287 vssd1 vssd1 vccd1 vccd1 sky130_fd_sc_hd__fill_1
XFILLER_0_13_271 vssd1 vssd1 vccd1 vccd1 sky130_fd_sc_hd__decap_3
XFILLER_0_13_293 vccd1 vssd1 vccd1 vssd1 sky130_ef_sc_hd__decap_12
XFILLER_0_50_29 vccd1 vssd1 vccd1 vssd1 sky130_ef_sc_hd__decap_12
XFILLER_0_48_190 vssd1 vssd1 vccd1 vccd1 sky130_fd_sc_hd__decap_6
XPHY_EDGE_ROW_36_Left_90 vssd1 vssd1 vccd1 vccd1 sky130_fd_sc_hd__decap_3
X_1320_ _0500_ _0516_ _0555_ vssd1 vssd1 vccd1 vccd1 _0588_ sky130_fd_sc_hd__or3_1
X_1182_ net157 _0392_ vssd1 vssd1 vccd1 vccd1 _0460_ sky130_fd_sc_hd__or2_1
X_1251_ net561 net634 net44 _0524_ vssd1 vssd1 vccd1 vccd1 _0013_ sky130_fd_sc_hd__a22o_1
XFILLER_0_24_85 vssd1 vssd1 vccd1 vccd1 sky130_fd_sc_hd__decap_6
XPHY_EDGE_ROW_20_Left_74 vssd1 vssd1 vccd1 vccd1 sky130_fd_sc_hd__decap_3
XTAP_TAPCELL_ROW_19_233 vssd1 vccd1 sky130_fd_sc_hd__tapvpwrvgnd_1
X_0897_ net433 net377 net344 net426 vssd1 vssd1 vccd1 vccd1 _0184_ sky130_fd_sc_hd__a22o_1
X_0966_ net96 net93 net90 _0252_ vssd1 vssd1 vccd1 vccd1 _0253_ sky130_fd_sc_hd__or4_1
X_1449_ clknet_2_3__leaf_clk0 _0008_ vssd1 vssd1 vccd1 vccd1 net39 sky130_fd_sc_hd__dfxtp_1
XFILLER_0_10_274 vccd1 vssd1 vccd1 vssd1 sky130_ef_sc_hd__decap_12
XTAP_TAPCELL_ROW_25_269 vssd1 vccd1 sky130_fd_sc_hd__tapvpwrvgnd_1
XFILLER_0_45_182 vssd1 vssd1 vccd1 vccd1 sky130_fd_sc_hd__decap_4
Xfanout471 net472 vssd1 vssd1 vccd1 vccd1 net471 sky130_fd_sc_hd__clkbuf_1
Xfanout482 _0706_ vssd1 vssd1 vccd1 vccd1 net482 sky130_fd_sc_hd__buf_1
Xfanout460 net462 vssd1 vssd1 vccd1 vccd1 net460 sky130_fd_sc_hd__buf_1
Xfanout493 net494 vssd1 vssd1 vccd1 vccd1 net493 sky130_fd_sc_hd__buf_1
XTAP_TAPCELL_ROW_16_214 vssd1 vccd1 sky130_fd_sc_hd__tapvpwrvgnd_1
XFILLER_0_43_108 vssd1 vssd1 vccd1 vccd1 sky130_fd_sc_hd__decap_4
X_0751_ net335 net334 _0714_ _0032_ vssd1 vssd1 vccd1 vccd1 _0038_ sky130_fd_sc_hd__or4_2
X_0820_ net247 net244 vssd1 vssd1 vccd1 vccd1 _0107_ sky130_fd_sc_hd__or2_1
X_1303_ net265 net253 _0180_ _0572_ vssd1 vssd1 vccd1 vccd1 _0573_ sky130_fd_sc_hd__or4_1
XFILLER_0_19_63 vssd1 vssd1 vccd1 vccd1 sky130_fd_sc_hd__fill_2
X_1096_ _0075_ _0308_ _0374_ _0375_ vssd1 vssd1 vccd1 vccd1 _0379_ sky130_fd_sc_hd__or4_1
X_1234_ _0126_ net177 _0415_ _0508_ vssd1 vssd1 vccd1 vccd1 _0509_ sky130_fd_sc_hd__or4_1
X_1165_ net208 net206 net155 net148 vssd1 vssd1 vccd1 vccd1 _0444_ sky130_fd_sc_hd__or4_1
X_0949_ net114 net113 net111 net108 vssd1 vssd1 vccd1 vccd1 _0236_ sky130_fd_sc_hd__or4_1
XFILLER_0_42_141 vssd1 vssd1 vccd1 vccd1 sky130_fd_sc_hd__fill_2
XTAP_TAPCELL_ROW_30_294 vssd1 vccd1 sky130_fd_sc_hd__tapvpwrvgnd_1
XFILLER_0_18_182 vssd1 vssd1 vccd1 vccd1 sky130_fd_sc_hd__fill_1
XFILLER_0_18_193 vssd1 vssd1 vccd1 vccd1 sky130_fd_sc_hd__decap_3
XFILLER_0_0_219 vssd1 vssd1 vccd1 vccd1 sky130_fd_sc_hd__fill_1
Xfanout290 _0070_ vssd1 vssd1 vccd1 vccd1 net290 sky130_fd_sc_hd__buf_1
XFILLER_0_16_119 vccd1 vssd1 vccd1 vssd1 sky130_ef_sc_hd__decap_12
X_0734_ net605 net611 net617 net623 vssd1 vssd1 vccd1 vccd1 _0706_ sky130_fd_sc_hd__nor4b_1
XFILLER_0_24_141 vssd1 vssd1 vccd1 vccd1 sky130_fd_sc_hd__decap_6
X_0803_ net263 net261 vssd1 vssd1 vccd1 vccd1 _0090_ sky130_fd_sc_hd__or2_1
XFILLER_0_12_325 vssd1 vssd1 vccd1 vccd1 sky130_fd_sc_hd__fill_1
XFILLER_0_46_50 vssd1 vssd1 vccd1 vccd1 sky130_fd_sc_hd__fill_1
X_1217_ _0489_ _0490_ _0491_ _0492_ vssd1 vssd1 vccd1 vccd1 _0493_ sky130_fd_sc_hd__or4_1
X_1148_ net271 net270 net250 net247 vssd1 vssd1 vccd1 vccd1 _0428_ sky130_fd_sc_hd__or4_1
X_1079_ net227 net197 _0197_ _0362_ vssd1 vssd1 vccd1 vccd1 _0363_ sky130_fd_sc_hd__or4_2
XFILLER_0_47_255 vssd1 vssd1 vccd1 vccd1 sky130_fd_sc_hd__decap_3
XFILLER_0_15_185 vssd1 vssd1 vccd1 vccd1 sky130_fd_sc_hd__decap_8
Xhold10 net28 vssd1 vssd1 vccd1 vccd1 net640 sky130_fd_sc_hd__dlygate4sd3_1
Xhold21 net37 vssd1 vssd1 vccd1 vccd1 net651 sky130_fd_sc_hd__dlygate4sd3_1
XFILLER_0_53_203 vccd1 vssd1 vccd1 vssd1 sky130_ef_sc_hd__decap_12
XPHY_EDGE_ROW_51_Left_105 vssd1 vssd1 vccd1 vccd1 sky130_fd_sc_hd__decap_3
XFILLER_0_53_247 vssd1 vssd1 vccd1 vccd1 sky130_fd_sc_hd__decap_4
XANTENNA_7 _0094_ vssd1 vssd1 vccd1 vccd1 sky130_fd_sc_hd__diode_2
XTAP_TAPCELL_ROW_49_412 vssd1 vccd1 sky130_fd_sc_hd__tapvpwrvgnd_1
X_1002_ net308 net232 net79 net71 vssd1 vssd1 vccd1 vccd1 _0289_ sky130_fd_sc_hd__or4_1
XFILLER_0_32_52 vssd1 vssd1 vccd1 vccd1 sky130_fd_sc_hd__fill_2
XFILLER_0_4_333 vssd1 vssd1 vccd1 vccd1 sky130_fd_sc_hd__decap_8
X_0717_ net592 net577 net585 net601 vssd1 vssd1 vccd1 vccd1 _0639_ sky130_fd_sc_hd__and4bb_1
XFILLER_0_35_225 vccd1 vssd1 vccd1 vssd1 sky130_ef_sc_hd__decap_12
XFILLER_0_7_160 vssd1 vssd1 vccd1 vccd1 sky130_fd_sc_hd__decap_8
Xoutput11 net11 vssd1 vssd1 vccd1 vccd1 dout0[10] sky130_fd_sc_hd__buf_2
Xoutput33 net33 vssd1 vssd1 vccd1 vccd1 dout0[30] sky130_fd_sc_hd__buf_2
Xoutput22 net22 vssd1 vssd1 vccd1 vccd1 dout0[20] sky130_fd_sc_hd__buf_2
XFILLER_0_9_3 vccd1 vssd1 vccd1 vssd1 sky130_ef_sc_hd__decap_12
XFILLER_0_53_29 vccd1 vssd1 vccd1 vssd1 sky130_ef_sc_hd__decap_12
XFILLER_0_26_203 vssd1 vssd1 vccd1 vccd1 sky130_fd_sc_hd__fill_1
XFILLER_0_34_280 vssd1 vssd1 vccd1 vccd1 sky130_fd_sc_hd__fill_1
XFILLER_0_27_52 vssd1 vssd1 vccd1 vccd1 sky130_fd_sc_hd__decap_4
XFILLER_0_27_41 vssd1 vssd1 vccd1 vccd1 sky130_fd_sc_hd__decap_4
XTAP_TAPCELL_ROW_52_429 vssd1 vccd1 sky130_fd_sc_hd__tapvpwrvgnd_1
XFILLER_0_49_317 vccd1 vssd1 vccd1 vssd1 sky130_ef_sc_hd__decap_12
XFILLER_0_4_141 vssd1 vssd1 vccd1 vccd1 sky130_fd_sc_hd__decap_3
XFILLER_0_4_130 vssd1 vssd1 vccd1 vccd1 sky130_fd_sc_hd__decap_8
XFILLER_0_17_225 vccd1 vssd1 vccd1 vssd1 sky130_ef_sc_hd__decap_12
XFILLER_0_40_261 vssd1 vssd1 vccd1 vccd1 sky130_fd_sc_hd__fill_2
XFILLER_0_7_51 vssd1 vssd1 vccd1 vccd1 sky130_fd_sc_hd__decap_4
XFILLER_0_31_294 vssd1 vssd1 vccd1 vccd1 sky130_fd_sc_hd__decap_8
XTAP_TAPCELL_ROW_8_162 vssd1 vccd1 sky130_fd_sc_hd__tapvpwrvgnd_1
XFILLER_0_46_309 vccd1 vssd1 vccd1 vssd1 sky130_ef_sc_hd__decap_12
X_0982_ _0035_ _0038_ _0062_ _0069_ vssd1 vssd1 vccd1 vccd1 _0269_ sky130_fd_sc_hd__or4_1
Xfanout119 net120 vssd1 vssd1 vccd1 vccd1 net119 sky130_fd_sc_hd__clkbuf_1
Xfanout108 net109 vssd1 vssd1 vccd1 vccd1 net108 sky130_fd_sc_hd__clkbuf_1
XFILLER_0_1_111 vssd1 vssd1 vccd1 vccd1 sky130_fd_sc_hd__fill_1
X_1465_ clknet_2_2__leaf_clk0 _0024_ vssd1 vssd1 vccd1 vccd1 net26 sky130_fd_sc_hd__dfxtp_1
X_1396_ _0197_ _0310_ _0374_ vssd1 vssd1 vccd1 vccd1 _0662_ sky130_fd_sc_hd__or3_1
XFILLER_0_45_331 vssd1 vssd1 vccd1 vccd1 sky130_fd_sc_hd__decap_4
XFILLER_0_9_211 vccd1 vssd1 vccd1 vssd1 sky130_ef_sc_hd__decap_12
Xfanout620 net621 vssd1 vssd1 vccd1 vccd1 net620 sky130_fd_sc_hd__clkbuf_1
XFILLER_0_28_309 vccd1 vssd1 vccd1 vssd1 sky130_ef_sc_hd__decap_12
XFILLER_0_50_19 vssd1 vssd1 vccd1 vccd1 sky130_fd_sc_hd__fill_1
XFILLER_0_36_331 vssd1 vssd1 vccd1 vccd1 sky130_fd_sc_hd__decap_3
X_1181_ net279 net269 net263 vssd1 vssd1 vccd1 vccd1 _0459_ sky130_fd_sc_hd__or3_1
X_1250_ _0517_ _0520_ _0523_ vssd1 vssd1 vccd1 vccd1 _0524_ sky130_fd_sc_hd__or3_1
XFILLER_0_46_139 vssd1 vssd1 vccd1 vccd1 sky130_fd_sc_hd__fill_1
X_0896_ net448 net377 net344 net440 vssd1 vssd1 vccd1 vccd1 _0183_ sky130_fd_sc_hd__a22o_1
X_0965_ net517 net366 vssd1 vssd1 vccd1 vccd1 _0252_ sky130_fd_sc_hd__and2b_1
X_1448_ clknet_2_1__leaf_clk0 _0007_ vssd1 vssd1 vccd1 vccd1 net38 sky130_fd_sc_hd__dfxtp_1
XFILLER_0_4_85 vssd1 vssd1 vccd1 vccd1 sky130_fd_sc_hd__decap_8
XFILLER_0_4_41 vccd1 vssd1 vccd1 vssd1 sky130_ef_sc_hd__decap_12
XFILLER_0_10_253 vccd1 vssd1 vccd1 vssd1 sky130_ef_sc_hd__decap_12
XFILLER_0_10_286 vccd1 vssd1 vccd1 vssd1 sky130_ef_sc_hd__decap_12
X_1379_ net308 net231 _0239_ _0284_ vssd1 vssd1 vccd1 vccd1 _0645_ sky130_fd_sc_hd__or4_1
XFILLER_0_52_109 vccd1 vssd1 vccd1 vssd1 sky130_ef_sc_hd__decap_12
XFILLER_0_18_320 vssd1 vssd1 vccd1 vccd1 sky130_fd_sc_hd__decap_4
XFILLER_0_18_331 vssd1 vssd1 vccd1 vccd1 sky130_fd_sc_hd__fill_1
Xfanout472 net473 vssd1 vssd1 vccd1 vccd1 net472 sky130_fd_sc_hd__clkbuf_1
Xfanout461 net462 vssd1 vssd1 vccd1 vccd1 net461 sky130_fd_sc_hd__clkbuf_1
Xfanout494 net499 vssd1 vssd1 vccd1 vccd1 net494 sky130_fd_sc_hd__buf_1
Xfanout483 net484 vssd1 vssd1 vccd1 vccd1 net483 sky130_fd_sc_hd__buf_1
Xfanout450 net455 vssd1 vssd1 vccd1 vccd1 net450 sky130_fd_sc_hd__buf_1
XTAP_TAPCELL_ROW_16_215 vssd1 vccd1 sky130_fd_sc_hd__tapvpwrvgnd_1
X_0750_ net335 net334 net323 vssd1 vssd1 vccd1 vccd1 _0037_ sky130_fd_sc_hd__or3_1
Xfanout90 net92 vssd1 vssd1 vccd1 vccd1 net90 sky130_fd_sc_hd__buf_1
XFILLER_0_36_9 vssd1 vssd1 vccd1 vccd1 sky130_fd_sc_hd__fill_1
X_1302_ net310 net211 net189 vssd1 vssd1 vccd1 vccd1 _0572_ sky130_fd_sc_hd__or3_1
X_1233_ _0037_ net67 _0180_ vssd1 vssd1 vccd1 vccd1 _0508_ sky130_fd_sc_hd__or3_1