* NGSPICE file created from cust_rom.ext - technology: sky130A

* Black-box entry subcircuit for sky130_fd_sc_hd__tapvpwrvgnd_1 abstract view
.subckt sky130_fd_sc_hd__tapvpwrvgnd_1 VGND VPWR
.ends

* Black-box entry subcircuit for sky130_fd_sc_hd__fill_1 abstract view
.subckt sky130_fd_sc_hd__fill_1 VGND VNB VPB VPWR
.ends

* Black-box entry subcircuit for sky130_fd_sc_hd__decap_6 abstract view
.subckt sky130_fd_sc_hd__decap_6 VGND VNB VPB VPWR
.ends

* Black-box entry subcircuit for sky130_fd_sc_hd__decap_4 abstract view
.subckt sky130_fd_sc_hd__decap_4 VGND VNB VPB VPWR
.ends

* Black-box entry subcircuit for sky130_ef_sc_hd__decap_12 abstract view
.subckt sky130_ef_sc_hd__decap_12 VPWR VGND VPB VNB
.ends

* Black-box entry subcircuit for sky130_fd_sc_hd__or3_1 abstract view
.subckt sky130_fd_sc_hd__or3_1 A B C VGND VNB VPB VPWR X
.ends

* Black-box entry subcircuit for sky130_fd_sc_hd__fill_2 abstract view
.subckt sky130_fd_sc_hd__fill_2 VGND VNB VPB VPWR
.ends

* Black-box entry subcircuit for sky130_fd_sc_hd__a22o_2 abstract view
.subckt sky130_fd_sc_hd__a22o_2 A1 A2 B1 B2 VGND VNB VPB VPWR X
.ends

* Black-box entry subcircuit for sky130_fd_sc_hd__o32a_1 abstract view
.subckt sky130_fd_sc_hd__o32a_1 A1 A2 A3 B1 B2 VGND VNB VPB VPWR X
.ends

* Black-box entry subcircuit for sky130_fd_sc_hd__clkbuf_2 abstract view
.subckt sky130_fd_sc_hd__clkbuf_2 A VGND VNB VPB VPWR X
.ends

* Black-box entry subcircuit for sky130_fd_sc_hd__buf_2 abstract view
.subckt sky130_fd_sc_hd__buf_2 A VGND VNB VPB VPWR X
.ends

* Black-box entry subcircuit for sky130_fd_sc_hd__decap_8 abstract view
.subckt sky130_fd_sc_hd__decap_8 VGND VNB VPB VPWR
.ends

* Black-box entry subcircuit for sky130_fd_sc_hd__nor4b_1 abstract view
.subckt sky130_fd_sc_hd__nor4b_1 A B C D_N VGND VNB VPB VPWR Y
.ends

* Black-box entry subcircuit for sky130_fd_sc_hd__or4_1 abstract view
.subckt sky130_fd_sc_hd__or4_1 A B C D VGND VNB VPB VPWR X
.ends

* Black-box entry subcircuit for sky130_fd_sc_hd__or2_1 abstract view
.subckt sky130_fd_sc_hd__or2_1 A B VGND VNB VPB VPWR X
.ends

* Black-box entry subcircuit for sky130_fd_sc_hd__or4_4 abstract view
.subckt sky130_fd_sc_hd__or4_4 A B C D VGND VNB VPB VPWR X
.ends

* Black-box entry subcircuit for sky130_fd_sc_hd__decap_3 abstract view
.subckt sky130_fd_sc_hd__decap_3 VGND VNB VPB VPWR
.ends

* Black-box entry subcircuit for sky130_fd_sc_hd__a22o_4 abstract view
.subckt sky130_fd_sc_hd__a22o_4 A1 A2 B1 B2 VGND VNB VPB VPWR X
.ends

* Black-box entry subcircuit for sky130_fd_sc_hd__dlygate4sd3_1 abstract view
.subckt sky130_fd_sc_hd__dlygate4sd3_1 A VGND VNB VPB VPWR X
.ends

* Black-box entry subcircuit for sky130_fd_sc_hd__diode_2 abstract view
.subckt sky130_fd_sc_hd__diode_2 DIODE VGND VNB VPB VPWR
.ends

* Black-box entry subcircuit for sky130_fd_sc_hd__or2_2 abstract view
.subckt sky130_fd_sc_hd__or2_2 A B VGND VNB VPB VPWR X
.ends

* Black-box entry subcircuit for sky130_fd_sc_hd__clkbuf_4 abstract view
.subckt sky130_fd_sc_hd__clkbuf_4 A VGND VNB VPB VPWR X
.ends

* Black-box entry subcircuit for sky130_fd_sc_hd__a22o_1 abstract view
.subckt sky130_fd_sc_hd__a22o_1 A1 A2 B1 B2 VGND VNB VPB VPWR X
.ends

* Black-box entry subcircuit for sky130_fd_sc_hd__buf_1 abstract view
.subckt sky130_fd_sc_hd__buf_1 A VGND VNB VPB VPWR X
.ends

* Black-box entry subcircuit for sky130_fd_sc_hd__o21ba_1 abstract view
.subckt sky130_fd_sc_hd__o21ba_1 A1 A2 B1_N VGND VNB VPB VPWR X
.ends

* Black-box entry subcircuit for sky130_fd_sc_hd__nor4_1 abstract view
.subckt sky130_fd_sc_hd__nor4_1 A B C D VGND VNB VPB VPWR Y
.ends

* Black-box entry subcircuit for sky130_fd_sc_hd__or2_4 abstract view
.subckt sky130_fd_sc_hd__or2_4 A B VGND VNB VPB VPWR X
.ends

* Black-box entry subcircuit for sky130_fd_sc_hd__or3_2 abstract view
.subckt sky130_fd_sc_hd__or3_2 A B C VGND VNB VPB VPWR X
.ends

* Black-box entry subcircuit for sky130_fd_sc_hd__dfxtp_1 abstract view
.subckt sky130_fd_sc_hd__dfxtp_1 CLK D VGND VNB VPB VPWR Q
.ends

* Black-box entry subcircuit for sky130_fd_sc_hd__nor2_1 abstract view
.subckt sky130_fd_sc_hd__nor2_1 A B VGND VNB VPB VPWR Y
.ends

* Black-box entry subcircuit for sky130_fd_sc_hd__and4_1 abstract view
.subckt sky130_fd_sc_hd__and4_1 A B C D VGND VNB VPB VPWR X
.ends

* Black-box entry subcircuit for sky130_fd_sc_hd__and4bb_1 abstract view
.subckt sky130_fd_sc_hd__and4bb_1 A_N B_N C D VGND VNB VPB VPWR X
.ends

* Black-box entry subcircuit for sky130_fd_sc_hd__or4_2 abstract view
.subckt sky130_fd_sc_hd__or4_2 A B C D VGND VNB VPB VPWR X
.ends

* Black-box entry subcircuit for sky130_fd_sc_hd__and4b_1 abstract view
.subckt sky130_fd_sc_hd__and4b_1 A_N B C D VGND VNB VPB VPWR X
.ends

* Black-box entry subcircuit for sky130_fd_sc_hd__bufinv_16 abstract view
.subckt sky130_fd_sc_hd__bufinv_16 A VGND VNB VPB VPWR Y
.ends

* Black-box entry subcircuit for sky130_fd_sc_hd__o21ba_2 abstract view
.subckt sky130_fd_sc_hd__o21ba_2 A1 A2 B1_N VGND VNB VPB VPWR X
.ends

* Black-box entry subcircuit for sky130_fd_sc_hd__dlymetal6s2s_1 abstract view
.subckt sky130_fd_sc_hd__dlymetal6s2s_1 A VGND VNB VPB VPWR X
.ends

* Black-box entry subcircuit for sky130_fd_sc_hd__clkinv_2 abstract view
.subckt sky130_fd_sc_hd__clkinv_2 A VGND VNB VPB VPWR Y
.ends

* Black-box entry subcircuit for sky130_fd_sc_hd__clkbuf_1 abstract view
.subckt sky130_fd_sc_hd__clkbuf_1 A VGND VNB VPB VPWR X
.ends

* Black-box entry subcircuit for sky130_fd_sc_hd__inv_2 abstract view
.subckt sky130_fd_sc_hd__inv_2 A VGND VNB VPB VPWR Y
.ends

* Black-box entry subcircuit for sky130_fd_sc_hd__o31a_1 abstract view
.subckt sky130_fd_sc_hd__o31a_1 A1 A2 A3 B1 VGND VNB VPB VPWR X
.ends

* Black-box entry subcircuit for sky130_fd_sc_hd__o22a_1 abstract view
.subckt sky130_fd_sc_hd__o22a_1 A1 A2 B1 B2 VGND VNB VPB VPWR X
.ends

* Black-box entry subcircuit for sky130_fd_sc_hd__clkbuf_16 abstract view
.subckt sky130_fd_sc_hd__clkbuf_16 A VGND VNB VPB VPWR X
.ends

* Black-box entry subcircuit for sky130_fd_sc_hd__o21ba_4 abstract view
.subckt sky130_fd_sc_hd__o21ba_4 A1 A2 B1_N VGND VNB VPB VPWR X
.ends

* Black-box entry subcircuit for sky130_fd_sc_hd__nand3b_1 abstract view
.subckt sky130_fd_sc_hd__nand3b_1 A_N B C VGND VNB VPB VPWR Y
.ends

* Black-box entry subcircuit for sky130_fd_sc_hd__or4b_1 abstract view
.subckt sky130_fd_sc_hd__or4b_1 A B C D_N VGND VNB VPB VPWR X
.ends

* Black-box entry subcircuit for sky130_fd_sc_hd__nor4b_2 abstract view
.subckt sky130_fd_sc_hd__nor4b_2 A B C D_N VGND VNB VPB VPWR Y
.ends

* Black-box entry subcircuit for sky130_fd_sc_hd__and2b_1 abstract view
.subckt sky130_fd_sc_hd__and2b_1 A_N B VGND VNB VPB VPWR X
.ends

* Black-box entry subcircuit for sky130_fd_sc_hd__or4b_4 abstract view
.subckt sky130_fd_sc_hd__or4b_4 A B C D_N VGND VNB VPB VPWR X
.ends

.subckt cust_rom VGND VPWR addr0[0] addr0[1] addr0[2] addr0[3] addr0[4] addr0[5] addr0[6]
+ addr0[7] clk0 cs0 dout0[0] dout0[10] dout0[11] dout0[12] dout0[13] dout0[14] dout0[15]
+ dout0[16] dout0[17] dout0[18] dout0[19] dout0[1] dout0[20] dout0[21] dout0[22] dout0[23]
+ dout0[24] dout0[25] dout0[26] dout0[27] dout0[28] dout0[29] dout0[2] dout0[30] dout0[31]
+ dout0[3] dout0[4] dout0[5] dout0[6] dout0[7] dout0[8] dout0[9]
XTAP_TAPCELL_ROW_37_434 VGND VPWR sky130_fd_sc_hd__tapvpwrvgnd_1
XFILLER_0_57_391 VGND VGND VPWR VPWR sky130_fd_sc_hd__fill_1
XTAP_TAPCELL_ROW_20_301 VGND VPWR sky130_fd_sc_hd__tapvpwrvgnd_1
XFILLER_0_32_258 VGND VGND VPWR VPWR sky130_fd_sc_hd__decap_6
XFILLER_0_32_247 VGND VGND VPWR VPWR sky130_fd_sc_hd__decap_4
XFILLER_0_7_81 VPWR VGND VPWR VGND sky130_ef_sc_hd__decap_12
XFILLER_0_13_461 VPWR VGND VPWR VGND sky130_ef_sc_hd__decap_12
XFILLER_0_63_361 VPWR VGND VPWR VGND sky130_ef_sc_hd__decap_12
XFILLER_0_23_225 VPWR VGND VPWR VGND sky130_ef_sc_hd__decap_12
XFILLER_0_48_15 VPWR VGND VPWR VGND sky130_ef_sc_hd__decap_12
XFILLER_0_64_69 VPWR VGND VPWR VGND sky130_ef_sc_hd__decap_12
X_1270_ _0539_ _0541_ _0546_ VGND VGND VPWR VPWR _0547_ sky130_fd_sc_hd__or3_1
XFILLER_0_3_39 VPWR VGND VPWR VGND sky130_ef_sc_hd__decap_12
XFILLER_0_58_177 VPWR VGND VPWR VGND sky130_ef_sc_hd__decap_12
XFILLER_0_58_133 VGND VGND VPWR VPWR sky130_fd_sc_hd__decap_6
XFILLER_0_46_306 VGND VGND VPWR VPWR sky130_fd_sc_hd__fill_2
XTAP_TAPCELL_ROW_42_481 VGND VPWR sky130_fd_sc_hd__tapvpwrvgnd_1
XTAP_TAPCELL_ROW_34_415 VGND VPWR sky130_fd_sc_hd__tapvpwrvgnd_1
XFILLER_0_13_51 VGND VGND VPWR VPWR sky130_fd_sc_hd__decap_4
XFILLER_0_6_469 VGND VGND VPWR VPWR sky130_fd_sc_hd__decap_4
X_0985_ net116 net84 net82 net121 VGND VGND VPWR VPWR _0277_ sky130_fd_sc_hd__a22o_2
X_1399_ net45 _0658_ _0666_ net165 net129 VGND VGND VPWR VPWR _0026_ sky130_fd_sc_hd__o32a_1
Xfanout127 net128 VGND VGND VPWR VPWR net127 sky130_fd_sc_hd__clkbuf_2
Xfanout138 net4 VGND VGND VPWR VPWR net138 sky130_fd_sc_hd__clkbuf_2
Xfanout116 _0687_ VGND VGND VPWR VPWR net116 sky130_fd_sc_hd__buf_2
XFILLER_0_49_166 VGND VGND VPWR VPWR sky130_fd_sc_hd__fill_2
XFILLER_0_64_169 VPWR VGND VPWR VGND sky130_ef_sc_hd__decap_12
XFILLER_0_64_125 VPWR VGND VPWR VGND sky130_ef_sc_hd__decap_12
XFILLER_0_52_309 VPWR VGND VPWR VGND sky130_ef_sc_hd__decap_12
XFILLER_0_45_361 VGND VGND VPWR VPWR sky130_fd_sc_hd__fill_1
XTAP_TAPCELL_ROW_48_529 VGND VPWR sky130_fd_sc_hd__tapvpwrvgnd_1
XTAP_TAPCELL_ROW_5_184 VGND VPWR sky130_fd_sc_hd__tapvpwrvgnd_1
XFILLER_0_18_29 VGND VGND VPWR VPWR sky130_fd_sc_hd__decap_8
XFILLER_0_55_125 VGND VGND VPWR VPWR sky130_fd_sc_hd__decap_6
XFILLER_0_50_27 VGND VGND VPWR VPWR sky130_fd_sc_hd__fill_1
XFILLER_0_55_169 VPWR VGND VPWR VGND sky130_ef_sc_hd__decap_12
XFILLER_0_51_331 VGND VGND VPWR VPWR sky130_fd_sc_hd__decap_4
XFILLER_0_3_417 VPWR VGND VPWR VGND sky130_ef_sc_hd__decap_12
XFILLER_0_11_217 VGND VGND VPWR VPWR sky130_fd_sc_hd__decap_6
X_0770_ net135 net131 net133 net137 VGND VGND VPWR VPWR _0062_ sky130_fd_sc_hd__nor4b_1
XFILLER_0_59_69 VPWR VGND VPWR VGND sky130_ef_sc_hd__decap_12
X_1253_ _0191_ _0193_ _0234_ _0405_ VGND VGND VPWR VPWR _0531_ sky130_fd_sc_hd__or4_1
X_1322_ _0096_ _0193_ VGND VGND VPWR VPWR _0594_ sky130_fd_sc_hd__or2_1
X_1184_ _0060_ _0228_ _0446_ _0466_ VGND VGND VPWR VPWR _0467_ sky130_fd_sc_hd__or4_1
XTAP_TAPCELL_ROW_19_297 VGND VPWR sky130_fd_sc_hd__tapvpwrvgnd_1
XFILLER_0_46_125 VGND VGND VPWR VPWR sky130_fd_sc_hd__decap_4
XFILLER_0_46_136 VGND VGND VPWR VPWR sky130_fd_sc_hd__decap_4
X_0968_ _0065_ _0259_ VGND VGND VPWR VPWR _0260_ sky130_fd_sc_hd__or2_1
XFILLER_0_34_309 VPWR VGND VPWR VGND sky130_ef_sc_hd__decap_12
XFILLER_0_24_83 VGND VGND VPWR VPWR sky130_fd_sc_hd__fill_1
XFILLER_0_6_233 VPWR VGND VPWR VGND sky130_ef_sc_hd__decap_12
XFILLER_0_6_277 VPWR VGND VPWR VGND sky130_ef_sc_hd__decap_12
XFILLER_0_19_317 VGND VGND VPWR VPWR sky130_fd_sc_hd__decap_8
X_0899_ _0115_ _0185_ _0186_ _0187_ VGND VGND VPWR VPWR _0191_ sky130_fd_sc_hd__or4_4
XFILLER_0_40_93 VGND VGND VPWR VPWR sky130_fd_sc_hd__decap_3
XTAP_TAPCELL_ROW_2_154 VGND VPWR sky130_fd_sc_hd__tapvpwrvgnd_1
XTAP_TAPCELL_ROW_53_565 VGND VPWR sky130_fd_sc_hd__tapvpwrvgnd_1
XFILLER_0_37_158 VGND VGND VPWR VPWR sky130_fd_sc_hd__decap_4
XFILLER_0_52_117 VGND VGND VPWR VPWR sky130_fd_sc_hd__decap_3
XFILLER_0_37_169 VPWR VGND VPWR VGND sky130_ef_sc_hd__decap_12
XFILLER_0_29_39 VGND VGND VPWR VPWR sky130_fd_sc_hd__fill_2
XFILLER_0_61_15 VPWR VGND VPWR VGND sky130_ef_sc_hd__decap_12
XFILLER_0_45_27 VPWR VGND VPWR VGND sky130_ef_sc_hd__decap_12
XFILLER_0_0_29 VPWR VGND VPWR VGND sky130_ef_sc_hd__decap_12
XFILLER_0_56_445 VPWR VGND VPWR VGND sky130_ef_sc_hd__decap_12
XFILLER_0_56_401 VPWR VGND VPWR VGND sky130_ef_sc_hd__decap_12
XFILLER_0_43_117 VGND VGND VPWR VPWR sky130_fd_sc_hd__fill_1
X_0822_ net110 net92 net90 net100 VGND VGND VPWR VPWR _0114_ sky130_fd_sc_hd__a22o_2
XFILLER_0_28_114 VGND VGND VPWR VPWR sky130_fd_sc_hd__fill_1
XFILLER_0_9_27 VPWR VGND VPWR VGND sky130_ef_sc_hd__decap_12
XTAP_TAPCELL_ROW_16_267 VGND VPWR sky130_fd_sc_hd__tapvpwrvgnd_1
XFILLER_0_16_309 VPWR VGND VPWR VGND sky130_ef_sc_hd__decap_12
X_0753_ _0040_ _0043_ _0044_ VGND VGND VPWR VPWR _0045_ sky130_fd_sc_hd__or3_1
XFILLER_0_3_225 VPWR VGND VPWR VGND sky130_ef_sc_hd__decap_12
XFILLER_0_10_41 VPWR VGND VPWR VGND sky130_ef_sc_hd__decap_12
XFILLER_0_10_85 VPWR VGND VPWR VGND sky130_ef_sc_hd__decap_12
X_1236_ _0119_ _0199_ _0209_ _0514_ VGND VGND VPWR VPWR _0515_ sky130_fd_sc_hd__or4_1
X_1305_ _0158_ _0576_ _0577_ _0578_ VGND VGND VPWR VPWR _0579_ sky130_fd_sc_hd__or4_1
XFILLER_0_19_94 VGND VGND VPWR VPWR sky130_fd_sc_hd__decap_3
X_1167_ _0141_ _0205_ _0230_ _0248_ VGND VGND VPWR VPWR _0451_ sky130_fd_sc_hd__or4_1
XFILLER_0_47_434 VGND VGND VPWR VPWR sky130_fd_sc_hd__decap_8
X_1098_ _0099_ _0102_ VGND VGND VPWR VPWR _0385_ sky130_fd_sc_hd__or2_1
XFILLER_0_51_81 VGND VGND VPWR VPWR sky130_fd_sc_hd__decap_8
XFILLER_0_42_161 VGND VGND VPWR VPWR sky130_fd_sc_hd__fill_2
XFILLER_0_19_158 VGND VGND VPWR VPWR sky130_fd_sc_hd__decap_8
XFILLER_0_19_169 VGND VGND VPWR VPWR sky130_fd_sc_hd__decap_4
XFILLER_0_30_389 VGND VGND VPWR VPWR sky130_fd_sc_hd__decap_6
XTAP_TAPCELL_ROW_58_602 VGND VPWR sky130_fd_sc_hd__tapvpwrvgnd_1
XFILLER_0_25_128 VGND VGND VPWR VPWR sky130_fd_sc_hd__fill_1
XTAP_TAPCELL_ROW_13_248 VGND VPWR sky130_fd_sc_hd__tapvpwrvgnd_1
XFILLER_0_33_161 VGND VGND VPWR VPWR sky130_fd_sc_hd__fill_2
XFILLER_0_21_378 VPWR VGND VPWR VGND sky130_ef_sc_hd__decap_12
XFILLER_0_56_15 VPWR VGND VPWR VGND sky130_ef_sc_hd__decap_12
X_1021_ _0136_ _0142_ VGND VGND VPWR VPWR _0312_ sky130_fd_sc_hd__or2_1
XFILLER_0_48_209 VPWR VGND VPWR VGND sky130_ef_sc_hd__decap_12
XTAP_TAPCELL_ROW_29_370 VGND VPWR sky130_fd_sc_hd__tapvpwrvgnd_1
XFILLER_0_56_253 VPWR VGND VPWR VGND sky130_ef_sc_hd__decap_12
XFILLER_0_12_301 VGND VGND VPWR VPWR sky130_fd_sc_hd__decap_6
XFILLER_0_16_139 VGND VGND VPWR VPWR sky130_fd_sc_hd__fill_1
X_0805_ net84 net52 net49 net82 VGND VGND VPWR VPWR _0097_ sky130_fd_sc_hd__a22o_4
X_0736_ net94 net92 net90 net96 VGND VGND VPWR VPWR _0710_ sky130_fd_sc_hd__a22o_2
XFILLER_0_12_345 VPWR VGND VPWR VGND sky130_ef_sc_hd__decap_12
XFILLER_0_12_389 VPWR VGND VPWR VGND sky130_ef_sc_hd__decap_12
X_1219_ _0166_ _0489_ _0497_ _0499_ VGND VGND VPWR VPWR _0500_ sky130_fd_sc_hd__or4_1
XFILLER_0_34_3 VGND VGND VPWR VPWR sky130_fd_sc_hd__decap_8
XFILLER_0_62_289 VPWR VGND VPWR VGND sky130_ef_sc_hd__decap_12
XFILLER_0_62_245 VGND VGND VPWR VPWR sky130_fd_sc_hd__decap_6
XFILLER_0_30_164 VGND VGND VPWR VPWR sky130_fd_sc_hd__decap_4
XFILLER_0_7_361 VPWR VGND VPWR VGND sky130_ef_sc_hd__decap_12
XTAP_TAPCELL_ROW_10_218 VGND VPWR sky130_fd_sc_hd__tapvpwrvgnd_1
XFILLER_0_15_161 VGND VGND VPWR VPWR sky130_fd_sc_hd__decap_6
XFILLER_0_30_186 VGND VGND VPWR VPWR sky130_fd_sc_hd__decap_8
Xhold30 net23 VGND VGND VPWR VPWR net175 sky130_fd_sc_hd__dlygate4sd3_1
XTAP_TAPCELL_ROW_26_351 VGND VPWR sky130_fd_sc_hd__tapvpwrvgnd_1
XFILLER_0_53_234 VPWR VGND VPWR VGND sky130_ef_sc_hd__decap_12
XFILLER_0_38_253 VPWR VGND VPWR VGND sky130_ef_sc_hd__decap_12
XANTENNA_5 _0097_ VGND VGND VPWR VPWR sky130_fd_sc_hd__diode_2
X_1004_ _0069_ _0295_ VGND VGND VPWR VPWR _0296_ sky130_fd_sc_hd__or2_2
XFILLER_0_44_223 VGND VGND VPWR VPWR sky130_fd_sc_hd__fill_1
XFILLER_0_29_242 VGND VGND VPWR VPWR sky130_fd_sc_hd__fill_2
XTAP_TAPCELL_ROW_32_398 VGND VPWR sky130_fd_sc_hd__tapvpwrvgnd_1
XFILLER_0_12_153 VPWR VGND VPWR VGND sky130_ef_sc_hd__decap_12
XFILLER_0_12_197 VPWR VGND VPWR VGND sky130_ef_sc_hd__decap_12
X_0719_ net124 net122 net120 net117 VGND VGND VPWR VPWR _0693_ sky130_fd_sc_hd__a22o_2
XFILLER_0_35_245 VGND VGND VPWR VPWR sky130_fd_sc_hd__decap_3
XFILLER_0_35_223 VGND VGND VPWR VPWR sky130_fd_sc_hd__fill_1
Xoutput20 net20 VGND VGND VPWR VPWR dout0[19] sky130_fd_sc_hd__clkbuf_4
XFILLER_0_31_440 VGND VGND VPWR VPWR sky130_fd_sc_hd__decap_8
Xoutput31 net31 VGND VGND VPWR VPWR dout0[29] sky130_fd_sc_hd__buf_2
XFILLER_0_53_27 VPWR VGND VPWR VGND sky130_ef_sc_hd__decap_12
XFILLER_0_49_337 VPWR VGND VPWR VGND sky130_ef_sc_hd__decap_12
XTAP_TAPCELL_ROW_37_435 VGND VPWR sky130_fd_sc_hd__tapvpwrvgnd_1
XFILLER_0_27_61 VGND VGND VPWR VPWR sky130_fd_sc_hd__fill_1
XFILLER_0_49_359 VGND VGND VPWR VPWR sky130_fd_sc_hd__decap_4
XFILLER_0_17_223 VGND VGND VPWR VPWR sky130_fd_sc_hd__fill_1
XTAP_TAPCELL_ROW_20_302 VGND VPWR sky130_fd_sc_hd__tapvpwrvgnd_1
XFILLER_0_7_93 VPWR VGND VPWR VGND sky130_ef_sc_hd__decap_12
XFILLER_0_63_373 VPWR VGND VPWR VGND sky130_ef_sc_hd__decap_12
XFILLER_0_2_109 VPWR VGND VPWR VGND sky130_ef_sc_hd__decap_12
XFILLER_0_23_237 VGND VGND VPWR VPWR sky130_fd_sc_hd__decap_8
XFILLER_0_48_27 VGND VGND VPWR VPWR sky130_fd_sc_hd__fill_1
XFILLER_0_31_281 VPWR VGND VPWR VGND sky130_ef_sc_hd__decap_12
XFILLER_0_64_15 VPWR VGND VPWR VGND sky130_ef_sc_hd__decap_12
XTAP_TAPCELL_ROW_34_416 VGND VPWR sky130_fd_sc_hd__tapvpwrvgnd_1
XFILLER_0_58_189 VGND VGND VPWR VPWR sky130_fd_sc_hd__decap_6
XFILLER_0_46_329 VGND VGND VPWR VPWR sky130_fd_sc_hd__decap_4
XFILLER_0_39_381 VGND VGND VPWR VPWR sky130_fd_sc_hd__fill_1
X_0984_ net122 net120 net117 net124 VGND VGND VPWR VPWR _0276_ sky130_fd_sc_hd__a22o_1
XFILLER_0_10_421 VPWR VGND VPWR VGND sky130_ef_sc_hd__decap_12
Xfanout128 net129 VGND VGND VPWR VPWR net128 sky130_fd_sc_hd__clkbuf_4
X_1398_ _0163_ _0659_ _0662_ _0665_ VGND VGND VPWR VPWR _0666_ sky130_fd_sc_hd__or4_1
Xfanout139 net4 VGND VGND VPWR VPWR net139 sky130_fd_sc_hd__buf_1
Xfanout117 net118 VGND VGND VPWR VPWR net117 sky130_fd_sc_hd__clkbuf_2
XFILLER_0_49_134 VPWR VGND VPWR VGND sky130_ef_sc_hd__decap_12
XPHY_EDGE_ROW_19_Left_84 VGND VGND VPWR VPWR sky130_fd_sc_hd__decap_3
XFILLER_0_64_137 VGND VGND VPWR VPWR sky130_fd_sc_hd__decap_3
XFILLER_0_60_365 VPWR VGND VPWR VGND sky130_ef_sc_hd__decap_12
XFILLER_0_60_321 VPWR VGND VPWR VGND sky130_ef_sc_hd__decap_12
XFILLER_0_45_373 VPWR VGND VPWR VGND sky130_ef_sc_hd__decap_12
XFILLER_0_13_281 VPWR VGND VPWR VGND sky130_ef_sc_hd__decap_12
XFILLER_0_34_18 VGND VGND VPWR VPWR sky130_fd_sc_hd__decap_8
XTAP_TAPCELL_ROW_5_185 VGND VPWR sky130_fd_sc_hd__tapvpwrvgnd_1
XFILLER_0_36_362 VGND VGND VPWR VPWR sky130_fd_sc_hd__fill_2
XFILLER_0_28_307 VGND VGND VPWR VPWR sky130_fd_sc_hd__fill_1
XFILLER_0_63_181 VPWR VGND VPWR VGND sky130_ef_sc_hd__decap_12
XFILLER_0_59_15 VPWR VGND VPWR VGND sky130_ef_sc_hd__decap_12
XFILLER_0_51_343 VPWR VGND VPWR VGND sky130_ef_sc_hd__decap_12
XFILLER_0_51_310 VGND VGND VPWR VPWR sky130_fd_sc_hd__decap_3
XFILLER_0_3_429 VPWR VGND VPWR VGND sky130_ef_sc_hd__decap_12
X_1252_ _0487_ _0489_ _0527_ _0529_ VGND VGND VPWR VPWR _0530_ sky130_fd_sc_hd__or4_1
X_1321_ _0201_ _0231_ _0366_ _0548_ VGND VGND VPWR VPWR _0593_ sky130_fd_sc_hd__or4_1
X_1183_ _0049_ _0389_ _0414_ _0459_ VGND VGND VPWR VPWR _0466_ sky130_fd_sc_hd__or4_1
XFILLER_0_24_73 VGND VGND VPWR VPWR sky130_fd_sc_hd__fill_1
XFILLER_0_54_181 VPWR VGND VPWR VGND sky130_ef_sc_hd__decap_12
XFILLER_0_42_365 VGND VGND VPWR VPWR sky130_fd_sc_hd__fill_1
X_0967_ net60 net58 _0046_ VGND VGND VPWR VPWR _0259_ sky130_fd_sc_hd__o21ba_1
XFILLER_0_6_245 VGND VGND VPWR VPWR sky130_fd_sc_hd__decap_6
XFILLER_0_6_289 VPWR VGND VPWR VGND sky130_ef_sc_hd__decap_12
XFILLER_0_64_3 VPWR VGND VPWR VGND sky130_ef_sc_hd__decap_12
X_0898_ _0185_ _0186_ VGND VGND VPWR VPWR _0190_ sky130_fd_sc_hd__or2_2
XFILLER_0_10_251 VGND VGND VPWR VPWR sky130_fd_sc_hd__fill_1
XPHY_EDGE_ROW_12_Right_12 VGND VGND VPWR VPWR sky130_fd_sc_hd__decap_3
XFILLER_0_4_83 VGND VGND VPWR VPWR sky130_fd_sc_hd__fill_1
XTAP_TAPCELL_ROW_2_155 VGND VPWR sky130_fd_sc_hd__tapvpwrvgnd_1
XPHY_EDGE_ROW_21_Right_21 VGND VGND VPWR VPWR sky130_fd_sc_hd__decap_3
XTAP_TAPCELL_ROW_53_566 VGND VPWR sky130_fd_sc_hd__tapvpwrvgnd_1
XPHY_EDGE_ROW_4_Left_69 VGND VGND VPWR VPWR sky130_fd_sc_hd__decap_3
XFILLER_0_60_195 VGND VGND VPWR VPWR sky130_fd_sc_hd__fill_1
XFILLER_0_45_181 VPWR VGND VPWR VGND sky130_ef_sc_hd__decap_12
XPHY_EDGE_ROW_30_Right_30 VGND VGND VPWR VPWR sky130_fd_sc_hd__decap_3
XFILLER_0_61_27 VPWR VGND VPWR VGND sky130_ef_sc_hd__decap_12
XFILLER_0_56_413 VGND VGND VPWR VPWR sky130_fd_sc_hd__decap_6
XFILLER_0_45_39 VPWR VGND VPWR VGND sky130_ef_sc_hd__decap_12
XFILLER_0_56_457 VPWR VGND VPWR VGND sky130_ef_sc_hd__decap_12
X_0752_ net84 net81 net78 net82 VGND VGND VPWR VPWR _0044_ sky130_fd_sc_hd__a22o_2
XFILLER_0_36_192 VGND VGND VPWR VPWR sky130_fd_sc_hd__decap_4
X_0821_ _0110_ net46 VGND VGND VPWR VPWR _0113_ sky130_fd_sc_hd__or2_2
XFILLER_0_9_39 VPWR VGND VPWR VGND sky130_ef_sc_hd__decap_12
XTAP_TAPCELL_ROW_16_268 VGND VPWR sky130_fd_sc_hd__tapvpwrvgnd_1
XFILLER_0_51_195 VPWR VGND VPWR VGND sky130_ef_sc_hd__decap_12
XFILLER_0_3_237 VPWR VGND VPWR VGND sky130_ef_sc_hd__decap_12
XFILLER_0_10_53 VPWR VGND VPWR VGND sky130_ef_sc_hd__decap_12
XFILLER_0_10_97 VPWR VGND VPWR VGND sky130_ef_sc_hd__decap_12
X_1166_ _0069_ _0272_ _0297_ _0411_ VGND VGND VPWR VPWR _0450_ sky130_fd_sc_hd__or4_1
X_1304_ _0165_ _0171_ _0219_ _0250_ VGND VGND VPWR VPWR _0578_ sky130_fd_sc_hd__or4_1
X_1235_ _0090_ _0161_ VGND VGND VPWR VPWR _0514_ sky130_fd_sc_hd__or2_1
XFILLER_0_59_273 VGND VGND VPWR VPWR sky130_fd_sc_hd__decap_6
X_1097_ net45 _0381_ _0384_ net151 net129 VGND VGND VPWR VPWR _0004_ sky130_fd_sc_hd__o32a_1
XFILLER_0_30_335 VPWR VGND VPWR VGND sky130_ef_sc_hd__decap_12
XFILLER_0_27_181 VGND VGND VPWR VPWR sky130_fd_sc_hd__decap_8
XTAP_TAPCELL_ROW_58_603 VGND VPWR sky130_fd_sc_hd__tapvpwrvgnd_1
XFILLER_0_53_449 VPWR VGND VPWR VGND sky130_ef_sc_hd__decap_12
XFILLER_0_53_405 VPWR VGND VPWR VGND sky130_ef_sc_hd__decap_12
XFILLER_0_25_107 VGND VGND VPWR VPWR sky130_fd_sc_hd__decap_4
XTAP_TAPCELL_ROW_13_249 VGND VPWR sky130_fd_sc_hd__tapvpwrvgnd_1
XFILLER_0_33_151 VGND VGND VPWR VPWR sky130_fd_sc_hd__decap_4
XFILLER_0_56_27 VGND VGND VPWR VPWR sky130_fd_sc_hd__fill_1
X_1020_ _0086_ _0310_ VGND VGND VPWR VPWR _0311_ sky130_fd_sc_hd__or2_1
XFILLER_0_56_265 VPWR VGND VPWR VGND sky130_ef_sc_hd__decap_12
XFILLER_0_56_221 VPWR VGND VPWR VGND sky130_ef_sc_hd__decap_12
XTAP_TAPCELL_ROW_29_371 VGND VPWR sky130_fd_sc_hd__tapvpwrvgnd_1
XFILLER_0_8_307 VGND VGND VPWR VPWR sky130_fd_sc_hd__fill_1
X_0804_ _0093_ _0094_ _0095_ VGND VGND VPWR VPWR _0096_ sky130_fd_sc_hd__or3_1
X_0735_ net143 net141 net139 net145 VGND VGND VPWR VPWR _0709_ sky130_fd_sc_hd__nor4b_1
XFILLER_0_12_357 VGND VGND VPWR VPWR sky130_fd_sc_hd__decap_6
X_1149_ net125 _0082_ _0431_ _0432_ VGND VGND VPWR VPWR _0434_ sky130_fd_sc_hd__or4_1
XFILLER_0_46_93 VGND VGND VPWR VPWR sky130_fd_sc_hd__fill_2
X_1218_ _0068_ _0268_ _0307_ _0498_ VGND VGND VPWR VPWR _0499_ sky130_fd_sc_hd__or4_1
XFILLER_0_27_3 VGND VGND VPWR VPWR sky130_fd_sc_hd__decap_8
XFILLER_0_1_51 VGND VGND VPWR VPWR sky130_fd_sc_hd__decap_4
XFILLER_0_35_449 VGND VGND VPWR VPWR sky130_fd_sc_hd__fill_1
XFILLER_0_7_373 VPWR VGND VPWR VGND sky130_ef_sc_hd__decap_12
XTAP_TAPCELL_ROW_10_219 VGND VPWR sky130_fd_sc_hd__tapvpwrvgnd_1
Xhold20 net28 VGND VGND VPWR VPWR net165 sky130_fd_sc_hd__dlygate4sd3_1
Xhold31 net25 VGND VGND VPWR VPWR net176 sky130_fd_sc_hd__dlygate4sd3_1
XFILLER_0_42_29 VPWR VGND VPWR VGND sky130_ef_sc_hd__decap_12
XFILLER_0_38_265 VGND VGND VPWR VPWR sky130_fd_sc_hd__decap_6
XTAP_TAPCELL_ROW_26_352 VGND VPWR sky130_fd_sc_hd__tapvpwrvgnd_1
XFILLER_0_53_246 VGND VGND VPWR VPWR sky130_fd_sc_hd__decap_6
XANTENNA_6 _0097_ VGND VGND VPWR VPWR sky130_fd_sc_hd__diode_2
XFILLER_0_38_276 VGND VGND VPWR VPWR sky130_fd_sc_hd__decap_8
XPHY_EDGE_ROW_7_Left_72 VGND VGND VPWR VPWR sky130_fd_sc_hd__decap_3
XFILLER_0_21_110 VGND VGND VPWR VPWR sky130_fd_sc_hd__fill_2
XFILLER_0_21_121 VPWR VGND VPWR VGND sky130_ef_sc_hd__decap_12
XFILLER_0_6_29 VPWR VGND VPWR VGND sky130_ef_sc_hd__decap_12
XFILLER_0_21_176 VGND VGND VPWR VPWR sky130_fd_sc_hd__fill_1
X_1003_ net68 net61 net58 net70 VGND VGND VPWR VPWR _0295_ sky130_fd_sc_hd__a22o_2
XFILLER_0_16_41 VPWR VGND VPWR VGND sky130_ef_sc_hd__decap_12
XFILLER_0_16_85 VPWR VGND VPWR VGND sky130_ef_sc_hd__decap_12
XTAP_TAPCELL_ROW_60_620 VGND VPWR sky130_fd_sc_hd__tapvpwrvgnd_1
XTAP_TAPCELL_ROW_32_399 VGND VPWR sky130_fd_sc_hd__tapvpwrvgnd_1
XFILLER_0_29_287 VPWR VGND VPWR VGND sky130_ef_sc_hd__decap_12
XFILLER_0_17_405 VPWR VGND VPWR VGND sky130_ef_sc_hd__decap_12
XFILLER_0_17_449 VPWR VGND VPWR VGND sky130_ef_sc_hd__decap_12
XFILLER_0_52_290 VGND VGND VPWR VPWR sky130_fd_sc_hd__decap_8
XFILLER_0_44_279 VPWR VGND VPWR VGND sky130_ef_sc_hd__decap_12
XFILLER_0_44_268 VGND VGND VPWR VPWR sky130_fd_sc_hd__decap_6
XFILLER_0_40_463 VGND VGND VPWR VPWR sky130_fd_sc_hd__decap_6
XFILLER_0_4_365 VPWR VGND VPWR VGND sky130_ef_sc_hd__decap_12
XFILLER_0_4_321 VPWR VGND VPWR VGND sky130_ef_sc_hd__decap_12
XPHY_EDGE_ROW_6_Right_6 VGND VGND VPWR VPWR sky130_fd_sc_hd__decap_3
XFILLER_0_12_121 VPWR VGND VPWR VGND sky130_ef_sc_hd__decap_12
XFILLER_0_12_165 VPWR VGND VPWR VGND sky130_ef_sc_hd__decap_12
X_0718_ net136 net134 net130 net132 VGND VGND VPWR VPWR _0687_ sky130_fd_sc_hd__nor4_1
XFILLER_0_57_81 VPWR VGND VPWR VGND sky130_ef_sc_hd__decap_12
XTAP_TAPCELL_ROW_23_322 VGND VPWR sky130_fd_sc_hd__tapvpwrvgnd_1
XFILLER_0_7_181 VPWR VGND VPWR VGND sky130_ef_sc_hd__decap_12
Xoutput32 net32 VGND VGND VPWR VPWR dout0[2] sky130_fd_sc_hd__clkbuf_4
XPHY_EDGE_ROW_33_Left_98 VGND VGND VPWR VPWR sky130_fd_sc_hd__decap_3
Xoutput21 net21 VGND VGND VPWR VPWR dout0[1] sky130_fd_sc_hd__buf_2
Xoutput10 net10 VGND VGND VPWR VPWR dout0[0] sky130_fd_sc_hd__buf_2
XFILLER_0_53_39 VPWR VGND VPWR VGND sky130_ef_sc_hd__decap_12
XPHY_EDGE_ROW_59_Right_59 VGND VGND VPWR VPWR sky130_fd_sc_hd__decap_3
XFILLER_0_1_335 VGND VGND VPWR VPWR sky130_fd_sc_hd__fill_1
XFILLER_0_14_419 VGND VGND VPWR VPWR sky130_fd_sc_hd__fill_1
XFILLER_0_49_349 VGND VGND VPWR VPWR sky130_fd_sc_hd__decap_4
XTAP_TAPCELL_ROW_37_436 VGND VPWR sky130_fd_sc_hd__tapvpwrvgnd_1
XFILLER_0_57_393 VPWR VGND VPWR VGND sky130_ef_sc_hd__decap_12
XFILLER_0_17_279 VGND VGND VPWR VPWR sky130_fd_sc_hd__fill_1
XTAP_TAPCELL_ROW_20_303 VGND VPWR sky130_fd_sc_hd__tapvpwrvgnd_1
XFILLER_0_4_195 VGND VGND VPWR VPWR sky130_fd_sc_hd__fill_1
XFILLER_0_13_441 VGND VGND VPWR VPWR sky130_fd_sc_hd__decap_6
XFILLER_0_63_385 VGND VGND VPWR VPWR sky130_fd_sc_hd__decap_6
XFILLER_0_64_27 VGND VGND VPWR VPWR sky130_fd_sc_hd__fill_1
XFILLER_0_31_293 VPWR VGND VPWR VGND sky130_ef_sc_hd__decap_12
XTAP_TAPCELL_ROW_34_417 VGND VPWR sky130_fd_sc_hd__tapvpwrvgnd_1
XFILLER_0_54_363 VGND VGND VPWR VPWR sky130_fd_sc_hd__fill_1
XFILLER_0_39_393 VPWR VGND VPWR VGND sky130_ef_sc_hd__decap_12
X_0983_ _0109_ _0274_ VGND VGND VPWR VPWR _0275_ sky130_fd_sc_hd__or2_4
Xfanout129 net9 VGND VGND VPWR VPWR net129 sky130_fd_sc_hd__clkbuf_4
XFILLER_0_10_433 VPWR VGND VPWR VGND sky130_ef_sc_hd__decap_12
XFILLER_0_38_83 VGND VGND VPWR VPWR sky130_fd_sc_hd__fill_1
X_1397_ _0430_ _0573_ _0663_ _0664_ VGND VGND VPWR VPWR _0665_ sky130_fd_sc_hd__or4_1
XFILLER_0_49_146 VPWR VGND VPWR VGND sky130_ef_sc_hd__decap_12
XFILLER_0_60_377 VPWR VGND VPWR VGND sky130_ef_sc_hd__decap_12
XFILLER_0_60_333 VPWR VGND VPWR VGND sky130_ef_sc_hd__decap_12
XFILLER_0_45_385 VGND VGND VPWR VPWR sky130_fd_sc_hd__decap_6
XFILLER_0_13_293 VPWR VGND VPWR VGND sky130_ef_sc_hd__decap_12
XTAP_TAPCELL_ROW_56_586 VGND VPWR sky130_fd_sc_hd__tapvpwrvgnd_1
XFILLER_0_55_138 VPWR VGND VPWR VGND sky130_ef_sc_hd__decap_12
XFILLER_0_55_105 VGND VGND VPWR VPWR sky130_fd_sc_hd__decap_6
XFILLER_0_50_29 VPWR VGND VPWR VGND sky130_ef_sc_hd__decap_12
XFILLER_0_36_341 VGND VGND VPWR VPWR sky130_fd_sc_hd__fill_2
XFILLER_0_63_193 VPWR VGND VPWR VGND sky130_ef_sc_hd__decap_12
XFILLER_0_59_27 VPWR VGND VPWR VGND sky130_ef_sc_hd__decap_12
XFILLER_0_51_355 VPWR VGND VPWR VGND sky130_ef_sc_hd__decap_12
X_1320_ _0074_ _0076_ _0221_ _0244_ VGND VGND VPWR VPWR _0592_ sky130_fd_sc_hd__or4_1
X_1251_ _0069_ _0149_ _0297_ _0491_ VGND VGND VPWR VPWR _0529_ sky130_fd_sc_hd__or4_1
X_1182_ _0252_ _0300_ _0406_ _0460_ VGND VGND VPWR VPWR _0465_ sky130_fd_sc_hd__or4_1
XTAP_TAPCELL_ROW_47_520 VGND VPWR sky130_fd_sc_hd__tapvpwrvgnd_1
XFILLER_0_24_41 VGND VGND VPWR VPWR sky130_fd_sc_hd__decap_3
XPHY_EDGE_ROW_20_Left_85 VGND VGND VPWR VPWR sky130_fd_sc_hd__decap_3
XFILLER_0_54_193 VGND VGND VPWR VPWR sky130_fd_sc_hd__decap_3
X_0897_ _0115_ _0186_ _0187_ VGND VGND VPWR VPWR _0189_ sky130_fd_sc_hd__or3_2
X_0966_ net114 net61 net58 net112 VGND VGND VPWR VPWR _0258_ sky130_fd_sc_hd__a22o_2
XFILLER_0_27_374 VGND VGND VPWR VPWR sky130_fd_sc_hd__fill_1
XFILLER_0_57_3 VPWR VGND VPWR VGND sky130_ef_sc_hd__decap_12
X_1449_ clknet_2_2__leaf_clk0 _0021_ VGND VGND VPWR VPWR net23 sky130_fd_sc_hd__dfxtp_1
XTAP_TAPCELL_ROW_2_156 VGND VPWR sky130_fd_sc_hd__tapvpwrvgnd_1
XTAP_TAPCELL_ROW_53_567 VGND VPWR sky130_fd_sc_hd__tapvpwrvgnd_1
XFILLER_0_45_160 VGND VGND VPWR VPWR sky130_fd_sc_hd__decap_8
XFILLER_0_37_105 VGND VGND VPWR VPWR sky130_fd_sc_hd__decap_6
XFILLER_0_18_363 VGND VGND VPWR VPWR sky130_fd_sc_hd__fill_1
XFILLER_0_60_141 VPWR VGND VPWR VGND sky130_ef_sc_hd__decap_12
XFILLER_0_45_193 VGND VGND VPWR VPWR sky130_fd_sc_hd__decap_4
XFILLER_0_61_39 VPWR VGND VPWR VGND sky130_ef_sc_hd__decap_12
XTAP_TAPCELL_ROW_16_269 VGND VPWR sky130_fd_sc_hd__tapvpwrvgnd_1
XFILLER_0_56_469 VGND VGND VPWR VPWR sky130_fd_sc_hd__decap_4
X_0751_ net80 net69 net67 net78 VGND VGND VPWR VPWR _0043_ sky130_fd_sc_hd__a22o_2
XFILLER_0_28_149 VGND VGND VPWR VPWR sky130_fd_sc_hd__fill_1
X_0820_ _0702_ _0111_ VGND VGND VPWR VPWR _0112_ sky130_fd_sc_hd__nor2_1
XFILLER_0_3_249 VPWR VGND VPWR VGND sky130_ef_sc_hd__decap_12
XFILLER_0_3_205 VPWR VGND VPWR VGND sky130_ef_sc_hd__decap_12
X_1303_ _0180_ _0288_ _0305_ _0308_ VGND VGND VPWR VPWR _0577_ sky130_fd_sc_hd__or4_1
XFILLER_0_10_65 VPWR VGND VPWR VGND sky130_ef_sc_hd__decap_12
XFILLER_0_19_30 VGND VGND VPWR VPWR sky130_fd_sc_hd__fill_1
X_1234_ _0107_ _0225_ VGND VGND VPWR VPWR _0513_ sky130_fd_sc_hd__or2_1
X_1165_ _0149_ _0446_ VGND VGND VPWR VPWR _0449_ sky130_fd_sc_hd__or2_1
X_1096_ _0370_ _0375_ _0382_ _0383_ VGND VGND VPWR VPWR _0384_ sky130_fd_sc_hd__or4_1
XFILLER_0_42_141 VPWR VGND VPWR VGND sky130_ef_sc_hd__decap_12
X_0949_ _0239_ _0240_ VGND VGND VPWR VPWR _0241_ sky130_fd_sc_hd__or2_1
XFILLER_0_30_347 VPWR VGND VPWR VGND sky130_ef_sc_hd__decap_12
XTAP_TAPCELL_ROW_58_604 VGND VPWR sky130_fd_sc_hd__tapvpwrvgnd_1
XFILLER_0_61_461 VPWR VGND VPWR VGND sky130_ef_sc_hd__decap_12