* NGSPICE file created from cust_rom.ext - technology: sky130A

* Black-box entry subcircuit for sky130_fd_sc_hd__decap_6 abstract view
.subckt sky130_fd_sc_hd__decap_6 VGND VNB VPB VPWR
.ends

* Black-box entry subcircuit for sky130_fd_sc_hd__decap_4 abstract view
.subckt sky130_fd_sc_hd__decap_4 VGND VNB VPB VPWR
.ends

* Black-box entry subcircuit for sky130_fd_sc_hd__fill_1 abstract view
.subckt sky130_fd_sc_hd__fill_1 VGND VNB VPB VPWR
.ends

* Black-box entry subcircuit for sky130_ef_sc_hd__decap_12 abstract view
.subckt sky130_ef_sc_hd__decap_12 VPWR VGND VPB VNB
.ends

* Black-box entry subcircuit for sky130_fd_sc_hd__a21o_1 abstract view
.subckt sky130_fd_sc_hd__a21o_1 A1 A2 B1 VGND VNB VPB VPWR X
.ends

* Black-box entry subcircuit for sky130_fd_sc_hd__o2111a_1 abstract view
.subckt sky130_fd_sc_hd__o2111a_1 A1 A2 B1 C1 D1 VGND VNB VPB VPWR X
.ends

* Black-box entry subcircuit for sky130_fd_sc_hd__decap_8 abstract view
.subckt sky130_fd_sc_hd__decap_8 VGND VNB VPB VPWR
.ends

* Black-box entry subcircuit for sky130_fd_sc_hd__tapvpwrvgnd_1 abstract view
.subckt sky130_fd_sc_hd__tapvpwrvgnd_1 VGND VPWR
.ends

* Black-box entry subcircuit for sky130_fd_sc_hd__o311a_1 abstract view
.subckt sky130_fd_sc_hd__o311a_1 A1 A2 A3 B1 C1 VGND VNB VPB VPWR X
.ends

* Black-box entry subcircuit for sky130_fd_sc_hd__o2bb2a_1 abstract view
.subckt sky130_fd_sc_hd__o2bb2a_1 A1_N A2_N B1 B2 VGND VNB VPB VPWR X
.ends

* Black-box entry subcircuit for sky130_fd_sc_hd__buf_2 abstract view
.subckt sky130_fd_sc_hd__buf_2 A VGND VNB VPB VPWR X
.ends

* Black-box entry subcircuit for sky130_fd_sc_hd__o211a_1 abstract view
.subckt sky130_fd_sc_hd__o211a_1 A1 A2 B1 C1 VGND VNB VPB VPWR X
.ends

* Black-box entry subcircuit for sky130_fd_sc_hd__clkbuf_2 abstract view
.subckt sky130_fd_sc_hd__clkbuf_2 A VGND VNB VPB VPWR X
.ends

* Black-box entry subcircuit for sky130_fd_sc_hd__dlymetal6s2s_1 abstract view
.subckt sky130_fd_sc_hd__dlymetal6s2s_1 A VGND VNB VPB VPWR X
.ends

* Black-box entry subcircuit for sky130_fd_sc_hd__o21a_1 abstract view
.subckt sky130_fd_sc_hd__o21a_1 A1 A2 B1 VGND VNB VPB VPWR X
.ends

* Black-box entry subcircuit for sky130_fd_sc_hd__nand2b_1 abstract view
.subckt sky130_fd_sc_hd__nand2b_1 A_N B VGND VNB VPB VPWR Y
.ends

* Black-box entry subcircuit for sky130_fd_sc_hd__a211o_1 abstract view
.subckt sky130_fd_sc_hd__a211o_1 A1 A2 B1 C1 VGND VNB VPB VPWR X
.ends

* Black-box entry subcircuit for sky130_fd_sc_hd__decap_3 abstract view
.subckt sky130_fd_sc_hd__decap_3 VGND VNB VPB VPWR
.ends

* Black-box entry subcircuit for sky130_fd_sc_hd__nand2_2 abstract view
.subckt sky130_fd_sc_hd__nand2_2 A B VGND VNB VPB VPWR Y
.ends

* Black-box entry subcircuit for sky130_fd_sc_hd__o21bai_2 abstract view
.subckt sky130_fd_sc_hd__o21bai_2 A1 A2 B1_N VGND VNB VPB VPWR Y
.ends

* Black-box entry subcircuit for sky130_fd_sc_hd__and2b_1 abstract view
.subckt sky130_fd_sc_hd__and2b_1 A_N B VGND VNB VPB VPWR X
.ends

* Black-box entry subcircuit for sky130_fd_sc_hd__fill_2 abstract view
.subckt sky130_fd_sc_hd__fill_2 VGND VNB VPB VPWR
.ends

* Black-box entry subcircuit for sky130_fd_sc_hd__o21ai_1 abstract view
.subckt sky130_fd_sc_hd__o21ai_1 A1 A2 B1 VGND VNB VPB VPWR Y
.ends

* Black-box entry subcircuit for sky130_fd_sc_hd__o21ai_4 abstract view
.subckt sky130_fd_sc_hd__o21ai_4 A1 A2 B1 VGND VNB VPB VPWR Y
.ends

* Black-box entry subcircuit for sky130_fd_sc_hd__and3_1 abstract view
.subckt sky130_fd_sc_hd__and3_1 A B C VGND VNB VPB VPWR X
.ends

* Black-box entry subcircuit for sky130_fd_sc_hd__o22a_1 abstract view
.subckt sky130_fd_sc_hd__o22a_1 A1 A2 B1 B2 VGND VNB VPB VPWR X
.ends

* Black-box entry subcircuit for sky130_fd_sc_hd__dlygate4sd3_1 abstract view
.subckt sky130_fd_sc_hd__dlygate4sd3_1 A VGND VNB VPB VPWR X
.ends

* Black-box entry subcircuit for sky130_fd_sc_hd__nand2_1 abstract view
.subckt sky130_fd_sc_hd__nand2_1 A B VGND VNB VPB VPWR Y
.ends

* Black-box entry subcircuit for sky130_fd_sc_hd__dfxtp_1 abstract view
.subckt sky130_fd_sc_hd__dfxtp_1 CLK D VGND VNB VPB VPWR Q
.ends

* Black-box entry subcircuit for sky130_fd_sc_hd__a21oi_1 abstract view
.subckt sky130_fd_sc_hd__a21oi_1 A1 A2 B1 VGND VNB VPB VPWR Y
.ends

* Black-box entry subcircuit for sky130_fd_sc_hd__a31o_1 abstract view
.subckt sky130_fd_sc_hd__a31o_1 A1 A2 A3 B1 VGND VNB VPB VPWR X
.ends

* Black-box entry subcircuit for sky130_fd_sc_hd__and3b_1 abstract view
.subckt sky130_fd_sc_hd__and3b_1 A_N B C VGND VNB VPB VPWR X
.ends

* Black-box entry subcircuit for sky130_fd_sc_hd__clkbuf_4 abstract view
.subckt sky130_fd_sc_hd__clkbuf_4 A VGND VNB VPB VPWR X
.ends

* Black-box entry subcircuit for sky130_fd_sc_hd__o31a_1 abstract view
.subckt sky130_fd_sc_hd__o31a_1 A1 A2 A3 B1 VGND VNB VPB VPWR X
.ends

* Black-box entry subcircuit for sky130_fd_sc_hd__a31oi_1 abstract view
.subckt sky130_fd_sc_hd__a31oi_1 A1 A2 A3 B1 VGND VNB VPB VPWR Y
.ends

* Black-box entry subcircuit for sky130_fd_sc_hd__or3_1 abstract view
.subckt sky130_fd_sc_hd__or3_1 A B C VGND VNB VPB VPWR X
.ends

* Black-box entry subcircuit for sky130_fd_sc_hd__o21a_2 abstract view
.subckt sky130_fd_sc_hd__o21a_2 A1 A2 B1 VGND VNB VPB VPWR X
.ends

* Black-box entry subcircuit for sky130_fd_sc_hd__xnor2_2 abstract view
.subckt sky130_fd_sc_hd__xnor2_2 A B VGND VNB VPB VPWR Y
.ends

* Black-box entry subcircuit for sky130_fd_sc_hd__a41o_1 abstract view
.subckt sky130_fd_sc_hd__a41o_1 A1 A2 A3 A4 B1 VGND VNB VPB VPWR X
.ends

* Black-box entry subcircuit for sky130_fd_sc_hd__or2_1 abstract view
.subckt sky130_fd_sc_hd__or2_1 A B VGND VNB VPB VPWR X
.ends

* Black-box entry subcircuit for sky130_fd_sc_hd__or4_4 abstract view
.subckt sky130_fd_sc_hd__or4_4 A B C D VGND VNB VPB VPWR X
.ends

* Black-box entry subcircuit for sky130_fd_sc_hd__o21ai_2 abstract view
.subckt sky130_fd_sc_hd__o21ai_2 A1 A2 B1 VGND VNB VPB VPWR Y
.ends

* Black-box entry subcircuit for sky130_fd_sc_hd__nor2_1 abstract view
.subckt sky130_fd_sc_hd__nor2_1 A B VGND VNB VPB VPWR Y
.ends

* Black-box entry subcircuit for sky130_fd_sc_hd__or4_1 abstract view
.subckt sky130_fd_sc_hd__or4_1 A B C D VGND VNB VPB VPWR X
.ends

* Black-box entry subcircuit for sky130_fd_sc_hd__o221a_1 abstract view
.subckt sky130_fd_sc_hd__o221a_1 A1 A2 B1 B2 C1 VGND VNB VPB VPWR X
.ends

* Black-box entry subcircuit for sky130_fd_sc_hd__or3_2 abstract view
.subckt sky130_fd_sc_hd__or3_2 A B C VGND VNB VPB VPWR X
.ends

* Black-box entry subcircuit for sky130_fd_sc_hd__a311oi_2 abstract view
.subckt sky130_fd_sc_hd__a311oi_2 A1 A2 A3 B1 C1 VGND VNB VPB VPWR Y
.ends

* Black-box entry subcircuit for sky130_fd_sc_hd__xor2_2 abstract view
.subckt sky130_fd_sc_hd__xor2_2 A B VGND VNB VPB VPWR X
.ends

* Black-box entry subcircuit for sky130_fd_sc_hd__a221o_1 abstract view
.subckt sky130_fd_sc_hd__a221o_1 A1 A2 B1 B2 C1 VGND VNB VPB VPWR X
.ends

* Black-box entry subcircuit for sky130_fd_sc_hd__o211ai_2 abstract view
.subckt sky130_fd_sc_hd__o211ai_2 A1 A2 B1 C1 VGND VNB VPB VPWR Y
.ends

* Black-box entry subcircuit for sky130_fd_sc_hd__or3b_2 abstract view
.subckt sky130_fd_sc_hd__or3b_2 A B C_N VGND VNB VPB VPWR X
.ends

* Black-box entry subcircuit for sky130_fd_sc_hd__a2bb2o_1 abstract view
.subckt sky130_fd_sc_hd__a2bb2o_1 A1_N A2_N B1 B2 VGND VNB VPB VPWR X
.ends

* Black-box entry subcircuit for sky130_fd_sc_hd__o31ai_1 abstract view
.subckt sky130_fd_sc_hd__o31ai_1 A1 A2 A3 B1 VGND VNB VPB VPWR Y
.ends

* Black-box entry subcircuit for sky130_fd_sc_hd__o211ai_4 abstract view
.subckt sky130_fd_sc_hd__o211ai_4 A1 A2 B1 C1 VGND VNB VPB VPWR Y
.ends

* Black-box entry subcircuit for sky130_fd_sc_hd__nand2_4 abstract view
.subckt sky130_fd_sc_hd__nand2_4 A B VGND VNB VPB VPWR Y
.ends

* Black-box entry subcircuit for sky130_fd_sc_hd__a32o_1 abstract view
.subckt sky130_fd_sc_hd__a32o_1 A1 A2 A3 B1 B2 VGND VNB VPB VPWR X
.ends

* Black-box entry subcircuit for sky130_fd_sc_hd__a21oi_2 abstract view
.subckt sky130_fd_sc_hd__a21oi_2 A1 A2 B1 VGND VNB VPB VPWR Y
.ends

* Black-box entry subcircuit for sky130_fd_sc_hd__or2_2 abstract view
.subckt sky130_fd_sc_hd__or2_2 A B VGND VNB VPB VPWR X
.ends

* Black-box entry subcircuit for sky130_fd_sc_hd__a21bo_1 abstract view
.subckt sky130_fd_sc_hd__a21bo_1 A1 A2 B1_N VGND VNB VPB VPWR X
.ends

* Black-box entry subcircuit for sky130_fd_sc_hd__mux2_1 abstract view
.subckt sky130_fd_sc_hd__mux2_1 A0 A1 S VGND VNB VPB VPWR X
.ends

* Black-box entry subcircuit for sky130_fd_sc_hd__bufinv_16 abstract view
.subckt sky130_fd_sc_hd__bufinv_16 A VGND VNB VPB VPWR Y
.ends

* Black-box entry subcircuit for sky130_fd_sc_hd__o32a_1 abstract view
.subckt sky130_fd_sc_hd__o32a_1 A1 A2 A3 B1 B2 VGND VNB VPB VPWR X
.ends

* Black-box entry subcircuit for sky130_fd_sc_hd__nand3_1 abstract view
.subckt sky130_fd_sc_hd__nand3_1 A B C VGND VNB VPB VPWR Y
.ends

* Black-box entry subcircuit for sky130_fd_sc_hd__o2111ai_1 abstract view
.subckt sky130_fd_sc_hd__o2111ai_1 A1 A2 B1 C1 D1 VGND VNB VPB VPWR Y
.ends

* Black-box entry subcircuit for sky130_fd_sc_hd__clkinv_4 abstract view
.subckt sky130_fd_sc_hd__clkinv_4 A VGND VNB VPB VPWR Y
.ends

* Black-box entry subcircuit for sky130_fd_sc_hd__and2_1 abstract view
.subckt sky130_fd_sc_hd__and2_1 A B VGND VNB VPB VPWR X
.ends

* Black-box entry subcircuit for sky130_fd_sc_hd__o311ai_2 abstract view
.subckt sky130_fd_sc_hd__o311ai_2 A1 A2 A3 B1 C1 VGND VNB VPB VPWR Y
.ends

* Black-box entry subcircuit for sky130_fd_sc_hd__o21bai_4 abstract view
.subckt sky130_fd_sc_hd__o21bai_4 A1 A2 B1_N VGND VNB VPB VPWR Y
.ends

* Black-box entry subcircuit for sky130_fd_sc_hd__o21ba_1 abstract view
.subckt sky130_fd_sc_hd__o21ba_1 A1 A2 B1_N VGND VNB VPB VPWR X
.ends

* Black-box entry subcircuit for sky130_fd_sc_hd__and4b_1 abstract view
.subckt sky130_fd_sc_hd__and4b_1 A_N B C D VGND VNB VPB VPWR X
.ends

* Black-box entry subcircuit for sky130_fd_sc_hd__xnor2_4 abstract view
.subckt sky130_fd_sc_hd__xnor2_4 A B VGND VNB VPB VPWR Y
.ends

* Black-box entry subcircuit for sky130_fd_sc_hd__or3b_1 abstract view
.subckt sky130_fd_sc_hd__or3b_1 A B C_N VGND VNB VPB VPWR X
.ends

* Black-box entry subcircuit for sky130_fd_sc_hd__buf_4 abstract view
.subckt sky130_fd_sc_hd__buf_4 A VGND VNB VPB VPWR X
.ends

* Black-box entry subcircuit for sky130_fd_sc_hd__and2b_4 abstract view
.subckt sky130_fd_sc_hd__and2b_4 A_N B VGND VNB VPB VPWR X
.ends

* Black-box entry subcircuit for sky130_fd_sc_hd__xnor2_1 abstract view
.subckt sky130_fd_sc_hd__xnor2_1 A B VGND VNB VPB VPWR Y
.ends

* Black-box entry subcircuit for sky130_fd_sc_hd__a21bo_4 abstract view
.subckt sky130_fd_sc_hd__a21bo_4 A1 A2 B1_N VGND VNB VPB VPWR X
.ends

* Black-box entry subcircuit for sky130_fd_sc_hd__clkbuf_16 abstract view
.subckt sky130_fd_sc_hd__clkbuf_16 A VGND VNB VPB VPWR X
.ends

* Black-box entry subcircuit for sky130_fd_sc_hd__nor2_2 abstract view
.subckt sky130_fd_sc_hd__nor2_2 A B VGND VNB VPB VPWR Y
.ends

* Black-box entry subcircuit for sky130_fd_sc_hd__a2111o_1 abstract view
.subckt sky130_fd_sc_hd__a2111o_1 A1 A2 B1 C1 D1 VGND VNB VPB VPWR X
.ends

* Black-box entry subcircuit for sky130_fd_sc_hd__inv_2 abstract view
.subckt sky130_fd_sc_hd__inv_2 A VGND VNB VPB VPWR Y
.ends

* Black-box entry subcircuit for sky130_fd_sc_hd__and4_1 abstract view
.subckt sky130_fd_sc_hd__and4_1 A B C D VGND VNB VPB VPWR X
.ends

* Black-box entry subcircuit for sky130_fd_sc_hd__a211o_2 abstract view
.subckt sky130_fd_sc_hd__a211o_2 A1 A2 B1 C1 VGND VNB VPB VPWR X
.ends

* Black-box entry subcircuit for sky130_fd_sc_hd__a311o_1 abstract view
.subckt sky130_fd_sc_hd__a311o_1 A1 A2 A3 B1 C1 VGND VNB VPB VPWR X
.ends

* Black-box entry subcircuit for sky130_fd_sc_hd__xor2_4 abstract view
.subckt sky130_fd_sc_hd__xor2_4 A B VGND VNB VPB VPWR X
.ends

* Black-box entry subcircuit for sky130_fd_sc_hd__or4b_1 abstract view
.subckt sky130_fd_sc_hd__or4b_1 A B C D_N VGND VNB VPB VPWR X
.ends

* Black-box entry subcircuit for sky130_fd_sc_hd__dfxtp_2 abstract view
.subckt sky130_fd_sc_hd__dfxtp_2 CLK D VGND VNB VPB VPWR Q
.ends

* Black-box entry subcircuit for sky130_fd_sc_hd__o211ai_1 abstract view
.subckt sky130_fd_sc_hd__o211ai_1 A1 A2 B1 C1 VGND VNB VPB VPWR Y
.ends

* Black-box entry subcircuit for sky130_fd_sc_hd__a22o_1 abstract view
.subckt sky130_fd_sc_hd__a22o_1 A1 A2 B1 B2 VGND VNB VPB VPWR X
.ends

* Black-box entry subcircuit for sky130_fd_sc_hd__nor3b_2 abstract view
.subckt sky130_fd_sc_hd__nor3b_2 A B C_N VGND VNB VPB VPWR Y
.ends

* Black-box entry subcircuit for sky130_fd_sc_hd__and2_2 abstract view
.subckt sky130_fd_sc_hd__and2_2 A B VGND VNB VPB VPWR X
.ends

* Black-box entry subcircuit for sky130_fd_sc_hd__nor3_2 abstract view
.subckt sky130_fd_sc_hd__nor3_2 A B C VGND VNB VPB VPWR Y
.ends

* Black-box entry subcircuit for sky130_fd_sc_hd__clkbuf_1 abstract view
.subckt sky130_fd_sc_hd__clkbuf_1 A VGND VNB VPB VPWR X
.ends

* Black-box entry subcircuit for sky130_fd_sc_hd__or3_4 abstract view
.subckt sky130_fd_sc_hd__or3_4 A B C VGND VNB VPB VPWR X
.ends

* Black-box entry subcircuit for sky130_fd_sc_hd__nand2b_2 abstract view
.subckt sky130_fd_sc_hd__nand2b_2 A_N B VGND VNB VPB VPWR Y
.ends

* Black-box entry subcircuit for sky130_fd_sc_hd__nor2_4 abstract view
.subckt sky130_fd_sc_hd__nor2_4 A B VGND VNB VPB VPWR Y
.ends

* Black-box entry subcircuit for sky130_fd_sc_hd__a21oi_4 abstract view
.subckt sky130_fd_sc_hd__a21oi_4 A1 A2 B1 VGND VNB VPB VPWR Y
.ends

* Black-box entry subcircuit for sky130_fd_sc_hd__o21bai_1 abstract view
.subckt sky130_fd_sc_hd__o21bai_1 A1 A2 B1_N VGND VNB VPB VPWR Y
.ends

* Black-box entry subcircuit for sky130_fd_sc_hd__o31ai_2 abstract view
.subckt sky130_fd_sc_hd__o31ai_2 A1 A2 A3 B1 VGND VNB VPB VPWR Y
.ends

* Black-box entry subcircuit for sky130_fd_sc_hd__nand3_4 abstract view
.subckt sky130_fd_sc_hd__nand3_4 A B C VGND VNB VPB VPWR Y
.ends

* Black-box entry subcircuit for sky130_fd_sc_hd__o41a_1 abstract view
.subckt sky130_fd_sc_hd__o41a_1 A1 A2 A3 A4 B1 VGND VNB VPB VPWR X
.ends

* Black-box entry subcircuit for sky130_fd_sc_hd__a311oi_1 abstract view
.subckt sky130_fd_sc_hd__a311oi_1 A1 A2 A3 B1 C1 VGND VNB VPB VPWR Y
.ends

* Black-box entry subcircuit for sky130_fd_sc_hd__and3_2 abstract view
.subckt sky130_fd_sc_hd__and3_2 A B C VGND VNB VPB VPWR X
.ends

* Black-box entry subcircuit for sky130_fd_sc_hd__a221oi_1 abstract view
.subckt sky130_fd_sc_hd__a221oi_1 A1 A2 B1 B2 C1 VGND VNB VPB VPWR Y
.ends

* Black-box entry subcircuit for sky130_fd_sc_hd__a21boi_1 abstract view
.subckt sky130_fd_sc_hd__a21boi_1 A1 A2 B1_N VGND VNB VPB VPWR Y
.ends

* Black-box entry subcircuit for sky130_fd_sc_hd__o2111ai_2 abstract view
.subckt sky130_fd_sc_hd__o2111ai_2 A1 A2 B1 C1 D1 VGND VNB VPB VPWR Y
.ends

* Black-box entry subcircuit for sky130_fd_sc_hd__o31a_2 abstract view
.subckt sky130_fd_sc_hd__o31a_2 A1 A2 A3 B1 VGND VNB VPB VPWR X
.ends

* Black-box entry subcircuit for sky130_fd_sc_hd__nor3_1 abstract view
.subckt sky130_fd_sc_hd__nor3_1 A B C VGND VNB VPB VPWR Y
.ends

* Black-box entry subcircuit for sky130_fd_sc_hd__a211oi_1 abstract view
.subckt sky130_fd_sc_hd__a211oi_1 A1 A2 B1 C1 VGND VNB VPB VPWR Y
.ends

* Black-box entry subcircuit for sky130_fd_sc_hd__or2_4 abstract view
.subckt sky130_fd_sc_hd__or2_4 A B VGND VNB VPB VPWR X
.ends

* Black-box entry subcircuit for sky130_fd_sc_hd__a21o_2 abstract view
.subckt sky130_fd_sc_hd__a21o_2 A1 A2 B1 VGND VNB VPB VPWR X
.ends

* Black-box entry subcircuit for sky130_fd_sc_hd__buf_1 abstract view
.subckt sky130_fd_sc_hd__buf_1 A VGND VNB VPB VPWR X
.ends

* Black-box entry subcircuit for sky130_fd_sc_hd__o211a_2 abstract view
.subckt sky130_fd_sc_hd__o211a_2 A1 A2 B1 C1 VGND VNB VPB VPWR X
.ends

* Black-box entry subcircuit for sky130_fd_sc_hd__clkbuf_8 abstract view
.subckt sky130_fd_sc_hd__clkbuf_8 A VGND VNB VPB VPWR X
.ends

* Black-box entry subcircuit for sky130_fd_sc_hd__and3b_2 abstract view
.subckt sky130_fd_sc_hd__and3b_2 A_N B C VGND VNB VPB VPWR X
.ends

* Black-box entry subcircuit for sky130_fd_sc_hd__diode_2 abstract view
.subckt sky130_fd_sc_hd__diode_2 DIODE VGND VNB VPB VPWR
.ends

* Black-box entry subcircuit for sky130_fd_sc_hd__and3_4 abstract view
.subckt sky130_fd_sc_hd__and3_4 A B C VGND VNB VPB VPWR X
.ends

* Black-box entry subcircuit for sky130_fd_sc_hd__o32ai_1 abstract view
.subckt sky130_fd_sc_hd__o32ai_1 A1 A2 A3 B1 B2 VGND VNB VPB VPWR Y
.ends

* Black-box entry subcircuit for sky130_fd_sc_hd__o22a_2 abstract view
.subckt sky130_fd_sc_hd__o22a_2 A1 A2 B1 B2 VGND VNB VPB VPWR X
.ends

* Black-box entry subcircuit for sky130_fd_sc_hd__and2b_2 abstract view
.subckt sky130_fd_sc_hd__and2b_2 A_N B VGND VNB VPB VPWR X
.ends

* Black-box entry subcircuit for sky130_fd_sc_hd__nand2b_4 abstract view
.subckt sky130_fd_sc_hd__nand2b_4 A_N B VGND VNB VPB VPWR Y
.ends

.subckt cust_rom VGND VPWR addr0[0] addr0[1] addr0[2] addr0[3] addr0[4] addr0[5] addr0[6]
+ addr0[7] clk0 cs0 dout0[0] dout0[10] dout0[11] dout0[12] dout0[13] dout0[14] dout0[15]
+ dout0[16] dout0[17] dout0[18] dout0[19] dout0[1] dout0[20] dout0[21] dout0[22] dout0[23]
+ dout0[24] dout0[25] dout0[26] dout0[27] dout0[28] dout0[29] dout0[2] dout0[30] dout0[31]
+ dout0[3] dout0[4] dout0[5] dout0[6] dout0[7] dout0[8] dout0[9]
XFILLER_0_7_81 VGND VGND VPWR VPWR sky130_fd_sc_hd__decap_6
XFILLER_0_7_70 VGND VGND VPWR VPWR sky130_fd_sc_hd__decap_4
XFILLER_0_4_182 VGND VGND VPWR VPWR sky130_fd_sc_hd__fill_1
XFILLER_0_2_119 VPWR VGND VPWR VGND sky130_ef_sc_hd__decap_12
XFILLER_0_23_225 VPWR VGND VPWR VGND sky130_ef_sc_hd__decap_12
XFILLER_0_3_39 VPWR VGND VPWR VGND sky130_ef_sc_hd__decap_12
X_1270_ _0076_ _0165_ net121 VGND VGND VPWR VPWR _0456_ sky130_fd_sc_hd__a21o_1
X_1606_ net118 _0128_ _0343_ _0774_ _0110_ VGND VGND VPWR VPWR _0789_ sky130_fd_sc_hd__o2111a_1
XFILLER_0_14_214 VGND VGND VPWR VPWR sky130_fd_sc_hd__decap_8
XTAP_TAPCELL_ROW_14_183 VGND VPWR sky130_fd_sc_hd__tapvpwrvgnd_1
X_0985_ net135 _0803_ _0101_ _0806_ net124 VGND VGND VPWR VPWR _0180_ sky130_fd_sc_hd__o311a_1
X_1399_ _0574_ _0579_ net175 net199 VGND VGND VPWR VPWR _0016_ sky130_fd_sc_hd__o2bb2a_1
X_1537_ net111 _0717_ _0701_ VGND VGND VPWR VPWR _0718_ sky130_fd_sc_hd__a21o_1
Xfanout138 net143 VGND VGND VPWR VPWR net138 sky130_fd_sc_hd__buf_2
Xfanout127 net129 VGND VGND VPWR VPWR net127 sky130_fd_sc_hd__buf_2
X_1468_ _0039_ net53 _0212_ net80 VGND VGND VPWR VPWR _0645_ sky130_fd_sc_hd__o211a_1
Xfanout149 net152 VGND VGND VPWR VPWR net149 sky130_fd_sc_hd__clkbuf_2
Xfanout116 net119 VGND VGND VPWR VPWR net116 sky130_fd_sc_hd__buf_2
Xfanout105 net106 VGND VGND VPWR VPWR net105 sky130_fd_sc_hd__dlymetal6s2s_1
XTAP_TAPCELL_ROW_37_297 VGND VPWR sky130_fd_sc_hd__tapvpwrvgnd_1
XFILLER_0_49_177 VGND VGND VPWR VPWR sky130_fd_sc_hd__decap_4
XFILLER_0_50_27 VGND VGND VPWR VPWR sky130_fd_sc_hd__fill_1
XTAP_TAPCELL_ROW_28_253 VGND VPWR sky130_fd_sc_hd__tapvpwrvgnd_1
XTAP_TAPCELL_ROW_11_164 VGND VPWR sky130_fd_sc_hd__tapvpwrvgnd_1
X_1253_ _0438_ _0439_ net104 VGND VGND VPWR VPWR _0440_ sky130_fd_sc_hd__o21a_1
X_1322_ _0130_ _0235_ VGND VGND VPWR VPWR _0506_ sky130_fd_sc_hd__nand2b_1
X_1184_ _0226_ _0372_ net76 _0757_ VGND VGND VPWR VPWR _0374_ sky130_fd_sc_hd__a211o_1
XPHY_EDGE_ROW_20_Left_72 VGND VGND VPWR VPWR sky130_fd_sc_hd__decap_3
X_0968_ net94 net88 VGND VGND VPWR VPWR _0164_ sky130_fd_sc_hd__nand2_2
XFILLER_0_6_277 VPWR VGND VPWR VGND sky130_ef_sc_hd__decap_12
XFILLER_0_49_91 VGND VGND VPWR VPWR sky130_fd_sc_hd__decap_4
X_0899_ net150 net160 net139 VGND VGND VPWR VPWR _0096_ sky130_fd_sc_hd__o21bai_2
XTAP_TAPCELL_ROW_2_121 VGND VPWR sky130_fd_sc_hd__tapvpwrvgnd_1
XTAP_TAPCELL_ROW_25_234 VGND VPWR sky130_fd_sc_hd__tapvpwrvgnd_1
XFILLER_0_45_191 VGND VGND VPWR VPWR sky130_fd_sc_hd__decap_6
XFILLER_0_20_19 VGND VGND VPWR VPWR sky130_fd_sc_hd__decap_8
XFILLER_0_0_29 VGND VGND VPWR VPWR sky130_fd_sc_hd__decap_8
XFILLER_0_28_125 VPWR VGND VPWR VGND sky130_ef_sc_hd__decap_12
XFILLER_0_9_49 VGND VGND VPWR VPWR sky130_fd_sc_hd__decap_3
X_0822_ net158 net165 VGND VGND VPWR VPWR _0787_ sky130_fd_sc_hd__and2b_1
XFILLER_0_51_183 VGND VGND VPWR VPWR sky130_fd_sc_hd__fill_1
XFILLER_0_51_150 VGND VGND VPWR VPWR sky130_fd_sc_hd__fill_2
XFILLER_0_3_225 VPWR VGND VPWR VGND sky130_ef_sc_hd__decap_12
X_1236_ _0414_ _0422_ _0423_ VGND VGND VPWR VPWR _0424_ sky130_fd_sc_hd__o21ai_1
XTAP_TAPCELL_ROW_39_304 VGND VPWR sky130_fd_sc_hd__tapvpwrvgnd_1
XFILLER_0_19_61 VGND VGND VPWR VPWR sky130_fd_sc_hd__fill_1
X_1305_ _0049_ _0368_ _0488_ _0482_ net105 VGND VGND VPWR VPWR _0490_ sky130_fd_sc_hd__o311a_1
X_1167_ _0355_ _0356_ net88 VGND VGND VPWR VPWR _0357_ sky130_fd_sc_hd__o21a_1
X_1098_ _0055_ net56 net75 VGND VGND VPWR VPWR _0291_ sky130_fd_sc_hd__o21ai_4
XFILLER_0_34_117 VGND VGND VPWR VPWR sky130_fd_sc_hd__fill_1
XFILLER_0_19_158 VGND VGND VPWR VPWR sky130_fd_sc_hd__decap_8
XFILLER_0_19_169 VGND VGND VPWR VPWR sky130_fd_sc_hd__decap_3
XFILLER_0_18_180 VGND VGND VPWR VPWR sky130_fd_sc_hd__decap_8
XFILLER_0_25_128 VGND VGND VPWR VPWR sky130_fd_sc_hd__fill_1
XFILLER_0_40_109 VGND VGND VPWR VPWR sky130_fd_sc_hd__decap_6
XFILLER_0_33_172 VGND VGND VPWR VPWR sky130_fd_sc_hd__fill_2
XFILLER_0_0_217 VGND VGND VPWR VPWR sky130_fd_sc_hd__decap_3
X_1021_ net126 _0086_ _0177_ VGND VGND VPWR VPWR _0216_ sky130_fd_sc_hd__and3_1
XFILLER_0_34_3 VGND VGND VPWR VPWR sky130_fd_sc_hd__decap_3
X_1219_ net126 _0403_ _0405_ _0406_ VGND VGND VPWR VPWR _0407_ sky130_fd_sc_hd__o22a_1
XFILLER_0_30_153 VPWR VGND VPWR VGND sky130_ef_sc_hd__decap_12
XFILLER_0_30_197 VPWR VGND VPWR VGND sky130_ef_sc_hd__decap_12
Xhold30 net16 VGND VGND VPWR VPWR net206 sky130_fd_sc_hd__dlygate4sd3_1
XPHY_EDGE_ROW_51_Left_103 VGND VGND VPWR VPWR sky130_fd_sc_hd__decap_3
XFILLER_0_38_253 VGND VGND VPWR VPWR sky130_fd_sc_hd__decap_4
X_1570_ _0342_ _0747_ _0751_ _0743_ VGND VGND VPWR VPWR _0752_ sky130_fd_sc_hd__a211o_1
XFILLER_0_44_201 VGND VGND VPWR VPWR sky130_fd_sc_hd__fill_1
X_1004_ net55 net47 VGND VGND VPWR VPWR _0199_ sky130_fd_sc_hd__nand2_1
XFILLER_0_32_83 VGND VGND VPWR VPWR sky130_fd_sc_hd__fill_1
XFILLER_0_12_175 VGND VGND VPWR VPWR sky130_fd_sc_hd__decap_8
XFILLER_0_35_278 VGND VGND VPWR VPWR sky130_fd_sc_hd__fill_2
Xoutput31 net31 VGND VGND VPWR VPWR dout0[29] sky130_fd_sc_hd__buf_2
Xoutput20 net20 VGND VGND VPWR VPWR dout0[19] sky130_fd_sc_hd__buf_2
X_1622_ clknet_2_3__leaf_clk0 _0004_ VGND VGND VPWR VPWR net36 sky130_fd_sc_hd__dfxtp_1
XFILLER_0_26_223 VGND VGND VPWR VPWR sky130_fd_sc_hd__fill_1
X_1553_ _0724_ _0730_ _0733_ VGND VGND VPWR VPWR _0734_ sky130_fd_sc_hd__a21oi_1
X_1484_ net89 _0659_ _0660_ _0342_ VGND VGND VPWR VPWR _0661_ sky130_fd_sc_hd__a31o_1
XFILLER_0_49_304 VGND VGND VPWR VPWR sky130_fd_sc_hd__fill_1
XFILLER_0_27_50 VGND VGND VPWR VPWR sky130_fd_sc_hd__decap_6
XFILLER_0_17_278 VGND VGND VPWR VPWR sky130_fd_sc_hd__fill_2
XFILLER_0_23_237 VGND VGND VPWR VPWR sky130_fd_sc_hd__decap_4
XFILLER_0_48_27 VGND VGND VPWR VPWR sky130_fd_sc_hd__fill_1
XFILLER_0_31_281 VGND VGND VPWR VPWR sky130_fd_sc_hd__fill_1
XFILLER_0_13_96 VPWR VGND VPWR VGND sky130_ef_sc_hd__decap_12
X_0984_ _0178_ _0177_ _0086_ VGND VGND VPWR VPWR _0179_ sky130_fd_sc_hd__and3b_1
X_1605_ net76 _0437_ net98 net85 VGND VGND VPWR VPWR _0788_ sky130_fd_sc_hd__o211a_1
XFILLER_0_14_259 VGND VGND VPWR VPWR sky130_fd_sc_hd__fill_1
X_1536_ _0085_ _0680_ _0702_ VGND VGND VPWR VPWR _0717_ sky130_fd_sc_hd__o21ai_1
Xfanout139 net140 VGND VGND VPWR VPWR net139 sky130_fd_sc_hd__clkbuf_4
Xfanout117 net118 VGND VGND VPWR VPWR net117 sky130_fd_sc_hd__buf_2
Xfanout128 net129 VGND VGND VPWR VPWR net128 sky130_fd_sc_hd__clkbuf_2
XFILLER_0_38_82 VGND VGND VPWR VPWR sky130_fd_sc_hd__fill_2
X_1398_ _0652_ _0577_ _0578_ net175 VGND VGND VPWR VPWR _0579_ sky130_fd_sc_hd__o31a_1
X_1467_ _0642_ _0643_ _0640_ VGND VGND VPWR VPWR _0644_ sky130_fd_sc_hd__o21ai_1
Xfanout106 net108 VGND VGND VPWR VPWR net106 sky130_fd_sc_hd__clkbuf_2
XTAP_TAPCELL_ROW_37_298 VGND VPWR sky130_fd_sc_hd__tapvpwrvgnd_1
XFILLER_0_13_281 VPWR VGND VPWR VGND sky130_ef_sc_hd__decap_12
XFILLER_0_34_29 VPWR VGND VPWR VGND sky130_ef_sc_hd__decap_12
XTAP_TAPCELL_ROW_11_165 VGND VPWR sky130_fd_sc_hd__tapvpwrvgnd_1
XFILLER_0_11_207 VPWR VGND VPWR VGND sky130_ef_sc_hd__decap_12
X_1252_ _0055_ _0067_ _0063_ net114 VGND VGND VPWR VPWR _0439_ sky130_fd_sc_hd__o211a_1
X_1321_ net101 _0503_ _0504_ _0092_ VGND VGND VPWR VPWR _0505_ sky130_fd_sc_hd__a31oi_1
X_1183_ net132 net68 net53 VGND VGND VPWR VPWR _0373_ sky130_fd_sc_hd__or3_1
XFILLER_0_24_51 VPWR VGND VPWR VGND sky130_ef_sc_hd__decap_12
XFILLER_0_46_159 VGND VGND VPWR VPWR sky130_fd_sc_hd__decap_6
X_0967_ net113 _0157_ _0162_ VGND VGND VPWR VPWR _0163_ sky130_fd_sc_hd__o21a_1
XTAP_TAPCELL_ROW_34_279 VGND VPWR sky130_fd_sc_hd__tapvpwrvgnd_1
XFILLER_0_6_289 VPWR VGND VPWR VGND sky130_ef_sc_hd__decap_12
X_1519_ net151 _0767_ net141 VGND VGND VPWR VPWR _0698_ sky130_fd_sc_hd__a21o_1
X_0898_ net145 net154 net70 VGND VGND VPWR VPWR _0095_ sky130_fd_sc_hd__o21a_2
XPHY_EDGE_ROW_12_Right_12 VGND VGND VPWR VPWR sky130_fd_sc_hd__decap_3
XFILLER_0_4_83 VGND VGND VPWR VPWR sky130_fd_sc_hd__fill_1
XTAP_TAPCELL_ROW_2_122 VGND VPWR sky130_fd_sc_hd__tapvpwrvgnd_1
XPHY_EDGE_ROW_21_Right_21 VGND VGND VPWR VPWR sky130_fd_sc_hd__decap_3
XFILLER_0_37_137 VGND VGND VPWR VPWR sky130_fd_sc_hd__decap_6
XTAP_TAPCELL_ROW_25_235 VGND VPWR sky130_fd_sc_hd__tapvpwrvgnd_1
XPHY_EDGE_ROW_30_Right_30 VGND VGND VPWR VPWR sky130_fd_sc_hd__decap_3
XTAP_TAPCELL_ROW_48_349 VGND VPWR sky130_fd_sc_hd__tapvpwrvgnd_1
XFILLER_0_43_107 VGND VGND VPWR VPWR sky130_fd_sc_hd__decap_4
XFILLER_0_28_137 VGND VGND VPWR VPWR sky130_fd_sc_hd__decap_3
X_0821_ net153 net162 VGND VGND VPWR VPWR _0777_ sky130_fd_sc_hd__xnor2_2
XFILLER_0_3_237 VPWR VGND VPWR VGND sky130_ef_sc_hd__decap_12
X_1235_ net89 _0420_ _0417_ net94 VGND VGND VPWR VPWR _0423_ sky130_fd_sc_hd__o211a_1
X_1166_ net119 _0041_ _0048_ _0226_ net107 VGND VGND VPWR VPWR _0356_ sky130_fd_sc_hd__a41o_1
XTAP_TAPCELL_ROW_39_305 VGND VPWR sky130_fd_sc_hd__tapvpwrvgnd_1
XFILLER_0_36_7 VPWR VGND VPWR VGND sky130_ef_sc_hd__decap_12
X_1304_ _0072_ _0114_ VGND VGND VPWR VPWR _0489_ sky130_fd_sc_hd__or2_1
XFILLER_0_19_95 VGND VGND VPWR VPWR sky130_fd_sc_hd__decap_3
X_1097_ net136 _0736_ net60 _0103_ VGND VGND VPWR VPWR _0290_ sky130_fd_sc_hd__or4_4
XFILLER_0_19_148 VGND VGND VPWR VPWR sky130_fd_sc_hd__decap_4
XTAP_TAPCELL_ROW_30_260 VGND VPWR sky130_fd_sc_hd__tapvpwrvgnd_1
X_1020_ net149 _0796_ _0050_ VGND VGND VPWR VPWR _0215_ sky130_fd_sc_hd__o21ai_2
XTAP_TAPCELL_ROW_44_330 VGND VPWR sky130_fd_sc_hd__tapvpwrvgnd_1
XFILLER_0_21_30 VGND VGND VPWR VPWR sky130_fd_sc_hd__fill_1
XFILLER_0_24_195 VGND VGND VPWR VPWR sky130_fd_sc_hd__fill_1
X_1149_ _0044_ net52 _0190_ net127 VGND VGND VPWR VPWR _0340_ sky130_fd_sc_hd__o211a_1
XFILLER_0_1_51 VGND VGND VPWR VPWR sky130_fd_sc_hd__decap_4
XFILLER_0_27_3 VPWR VGND VPWR VGND sky130_ef_sc_hd__decap_12
X_1218_ net45 _0112_ _0087_ VGND VGND VPWR VPWR _0406_ sky130_fd_sc_hd__o21ai_1
XFILLER_0_30_165 VGND VGND VPWR VPWR sky130_fd_sc_hd__fill_2
XFILLER_0_15_195 VPWR VGND VPWR VGND sky130_ef_sc_hd__decap_12
Xhold20 net26 VGND VGND VPWR VPWR net196 sky130_fd_sc_hd__dlygate4sd3_1
Xhold31 net28 VGND VGND VPWR VPWR net207 sky130_fd_sc_hd__dlygate4sd3_1
XFILLER_0_42_29 VPWR VGND VPWR VGND sky130_ef_sc_hd__decap_12
XFILLER_0_38_210 VGND VGND VPWR VPWR sky130_fd_sc_hd__fill_1
XFILLER_0_6_29 VPWR VGND VPWR VGND sky130_ef_sc_hd__decap_12
XFILLER_0_6_18 VGND VGND VPWR VPWR sky130_fd_sc_hd__decap_8
X_1003_ net141 net168 _0067_ VGND VGND VPWR VPWR _0198_ sky130_fd_sc_hd__or3_1
XFILLER_0_13_9 VGND VGND VPWR VPWR sky130_fd_sc_hd__fill_1
XFILLER_0_16_41 VGND VGND VPWR VPWR sky130_fd_sc_hd__decap_4
XFILLER_0_16_85 VGND VGND VPWR VPWR sky130_fd_sc_hd__decap_6
XFILLER_0_8_104 VGND VGND VPWR VPWR sky130_fd_sc_hd__decap_4
XFILLER_0_8_126 VGND VGND VPWR VPWR sky130_fd_sc_hd__decap_6
XPHY_EDGE_ROW_6_Right_6 VGND VGND VPWR VPWR sky130_fd_sc_hd__decap_3
XFILLER_0_35_202 VGND VGND VPWR VPWR sky130_fd_sc_hd__fill_2
Xoutput21 net21 VGND VGND VPWR VPWR dout0[1] sky130_fd_sc_hd__buf_2
Xoutput10 net10 VGND VGND VPWR VPWR dout0[0] sky130_fd_sc_hd__buf_2
Xoutput32 net32 VGND VGND VPWR VPWR dout0[2] sky130_fd_sc_hd__buf_2
X_1552_ net91 _0731_ VGND VGND VPWR VPWR _0733_ sky130_fd_sc_hd__nor2_1
XFILLER_0_41_205 VGND VGND VPWR VPWR sky130_fd_sc_hd__fill_2
X_1621_ clknet_2_0__leaf_clk0 _0003_ VGND VGND VPWR VPWR net35 sky130_fd_sc_hd__dfxtp_1
X_1483_ _0161_ _0184_ net125 VGND VGND VPWR VPWR _0660_ sky130_fd_sc_hd__a21o_1
XFILLER_0_32_205 VPWR VGND VPWR VGND sky130_ef_sc_hd__decap_12
XFILLER_0_17_213 VGND VGND VPWR VPWR sky130_fd_sc_hd__decap_6
XFILLER_0_32_249 VGND VGND VPWR VPWR sky130_fd_sc_hd__decap_3
XTAP_TAPCELL_ROW_8_150 VGND VPWR sky130_fd_sc_hd__tapvpwrvgnd_1
X_0983_ net127 _0040_ _0043_ _0045_ VGND VGND VPWR VPWR _0178_ sky130_fd_sc_hd__or4_1
XFILLER_0_14_205 VGND VGND VPWR VPWR sky130_fd_sc_hd__decap_3
X_1535_ net43 _0714_ _0709_ _0708_ VGND VGND VPWR VPWR _0716_ sky130_fd_sc_hd__a211o_1
Xfanout107 net108 VGND VGND VPWR VPWR net107 sky130_fd_sc_hd__clkbuf_4
Xfanout118 net119 VGND VGND VPWR VPWR net118 sky130_fd_sc_hd__buf_2
Xfanout129 addr0_reg\[4\] VGND VGND VPWR VPWR net129 sky130_fd_sc_hd__clkbuf_2
X_1604_ net118 _0048_ _0342_ _0732_ VGND VGND VPWR VPWR _0786_ sky130_fd_sc_hd__o211a_1
X_1397_ net58 _0202_ _0318_ _0345_ _0571_ VGND VGND VPWR VPWR _0578_ sky130_fd_sc_hd__o221a_1
X_1466_ _0474_ _0489_ net79 VGND VGND VPWR VPWR _0643_ sky130_fd_sc_hd__a21oi_1
XFILLER_0_9_210 VPWR VGND VPWR VGND sky130_ef_sc_hd__decap_12
XFILLER_0_9_232 VGND VGND VPWR VPWR sky130_fd_sc_hd__decap_4
XFILLER_0_13_293 VPWR VGND VPWR VGND sky130_ef_sc_hd__decap_12
XFILLER_0_50_29 VPWR VGND VPWR VGND sky130_ef_sc_hd__decap_12
XTAP_TAPCELL_ROW_11_166 VGND VPWR sky130_fd_sc_hd__tapvpwrvgnd_1
XFILLER_0_11_219 VGND VGND VPWR VPWR sky130_fd_sc_hd__decap_4
X_1320_ net62 _0095_ _0080_ VGND VGND VPWR VPWR _0504_ sky130_fd_sc_hd__a21o_1
X_1182_ net136 _0736_ net53 VGND VGND VPWR VPWR _0372_ sky130_fd_sc_hd__or3_2