* NGSPICE file created from cust_rom.ext - technology: sky130A

* Black-box entry subcircuit for sky130_ef_sc_hd__decap_12 abstract view
.subckt sky130_ef_sc_hd__decap_12 VPWR VGND VPB VNB
.ends

* Black-box entry subcircuit for sky130_fd_sc_hd__a22o_1 abstract view
.subckt sky130_fd_sc_hd__a22o_1 A1 A2 B1 B2 VGND VNB VPB VPWR X
.ends

* Black-box entry subcircuit for sky130_fd_sc_hd__or2_1 abstract view
.subckt sky130_fd_sc_hd__or2_1 A B VGND VNB VPB VPWR X
.ends

* Black-box entry subcircuit for sky130_fd_sc_hd__tapvpwrvgnd_1 abstract view
.subckt sky130_fd_sc_hd__tapvpwrvgnd_1 VGND VPWR
.ends

* Black-box entry subcircuit for sky130_fd_sc_hd__dfxtp_1 abstract view
.subckt sky130_fd_sc_hd__dfxtp_1 CLK D VGND VNB VPB VPWR Q
.ends

* Black-box entry subcircuit for sky130_fd_sc_hd__decap_4 abstract view
.subckt sky130_fd_sc_hd__decap_4 VGND VNB VPB VPWR
.ends

* Black-box entry subcircuit for sky130_fd_sc_hd__fill_1 abstract view
.subckt sky130_fd_sc_hd__fill_1 VGND VNB VPB VPWR
.ends

* Black-box entry subcircuit for sky130_fd_sc_hd__a22oi_1 abstract view
.subckt sky130_fd_sc_hd__a22oi_1 A1 A2 B1 B2 VGND VNB VPB VPWR Y
.ends

* Black-box entry subcircuit for sky130_fd_sc_hd__a221o_1 abstract view
.subckt sky130_fd_sc_hd__a221o_1 A1 A2 B1 B2 C1 VGND VNB VPB VPWR X
.ends

* Black-box entry subcircuit for sky130_fd_sc_hd__and3b_1 abstract view
.subckt sky130_fd_sc_hd__and3b_1 A_N B C VGND VNB VPB VPWR X
.ends

* Black-box entry subcircuit for sky130_fd_sc_hd__decap_8 abstract view
.subckt sky130_fd_sc_hd__decap_8 VGND VNB VPB VPWR
.ends

* Black-box entry subcircuit for sky130_fd_sc_hd__buf_2 abstract view
.subckt sky130_fd_sc_hd__buf_2 A VGND VNB VPB VPWR X
.ends

* Black-box entry subcircuit for sky130_fd_sc_hd__decap_6 abstract view
.subckt sky130_fd_sc_hd__decap_6 VGND VNB VPB VPWR
.ends

* Black-box entry subcircuit for sky130_fd_sc_hd__o21ba_1 abstract view
.subckt sky130_fd_sc_hd__o21ba_1 A1 A2 B1_N VGND VNB VPB VPWR X
.ends

* Black-box entry subcircuit for sky130_fd_sc_hd__or3_1 abstract view
.subckt sky130_fd_sc_hd__or3_1 A B C VGND VNB VPB VPWR X
.ends

* Black-box entry subcircuit for sky130_fd_sc_hd__decap_3 abstract view
.subckt sky130_fd_sc_hd__decap_3 VGND VNB VPB VPWR
.ends

* Black-box entry subcircuit for sky130_fd_sc_hd__and4bb_2 abstract view
.subckt sky130_fd_sc_hd__and4bb_2 A_N B_N C D VGND VNB VPB VPWR X
.ends

* Black-box entry subcircuit for sky130_fd_sc_hd__fill_2 abstract view
.subckt sky130_fd_sc_hd__fill_2 VGND VNB VPB VPWR
.ends

* Black-box entry subcircuit for sky130_fd_sc_hd__or4_1 abstract view
.subckt sky130_fd_sc_hd__or4_1 A B C D VGND VNB VPB VPWR X
.ends

* Black-box entry subcircuit for sky130_fd_sc_hd__nor4b_2 abstract view
.subckt sky130_fd_sc_hd__nor4b_2 A B C D_N VGND VNB VPB VPWR Y
.ends

* Black-box entry subcircuit for sky130_fd_sc_hd__dlygate4sd3_1 abstract view
.subckt sky130_fd_sc_hd__dlygate4sd3_1 A VGND VNB VPB VPWR X
.ends

* Black-box entry subcircuit for sky130_fd_sc_hd__nor2_1 abstract view
.subckt sky130_fd_sc_hd__nor2_1 A B VGND VNB VPB VPWR Y
.ends

* Black-box entry subcircuit for sky130_fd_sc_hd__and4b_2 abstract view
.subckt sky130_fd_sc_hd__and4b_2 A_N B C D VGND VNB VPB VPWR X
.ends

* Black-box entry subcircuit for sky130_fd_sc_hd__and3_1 abstract view
.subckt sky130_fd_sc_hd__and3_1 A B C VGND VNB VPB VPWR X
.ends

* Black-box entry subcircuit for sky130_fd_sc_hd__nor3_1 abstract view
.subckt sky130_fd_sc_hd__nor3_1 A B C VGND VNB VPB VPWR Y
.ends

* Black-box entry subcircuit for sky130_fd_sc_hd__clkinv_2 abstract view
.subckt sky130_fd_sc_hd__clkinv_2 A VGND VNB VPB VPWR Y
.ends

* Black-box entry subcircuit for sky130_fd_sc_hd__nor4_1 abstract view
.subckt sky130_fd_sc_hd__nor4_1 A B C D VGND VNB VPB VPWR Y
.ends

* Black-box entry subcircuit for sky130_fd_sc_hd__clkbuf_4 abstract view
.subckt sky130_fd_sc_hd__clkbuf_4 A VGND VNB VPB VPWR X
.ends

* Black-box entry subcircuit for sky130_fd_sc_hd__clkbuf_16 abstract view
.subckt sky130_fd_sc_hd__clkbuf_16 A VGND VNB VPB VPWR X
.ends

* Black-box entry subcircuit for sky130_fd_sc_hd__buf_1 abstract view
.subckt sky130_fd_sc_hd__buf_1 A VGND VNB VPB VPWR X
.ends

* Black-box entry subcircuit for sky130_fd_sc_hd__clkbuf_2 abstract view
.subckt sky130_fd_sc_hd__clkbuf_2 A VGND VNB VPB VPWR X
.ends

* Black-box entry subcircuit for sky130_fd_sc_hd__or4b_1 abstract view
.subckt sky130_fd_sc_hd__or4b_1 A B C D_N VGND VNB VPB VPWR X
.ends

* Black-box entry subcircuit for sky130_fd_sc_hd__a21o_1 abstract view
.subckt sky130_fd_sc_hd__a21o_1 A1 A2 B1 VGND VNB VPB VPWR X
.ends

* Black-box entry subcircuit for sky130_fd_sc_hd__dlymetal6s2s_1 abstract view
.subckt sky130_fd_sc_hd__dlymetal6s2s_1 A VGND VNB VPB VPWR X
.ends

* Black-box entry subcircuit for sky130_fd_sc_hd__clkbuf_1 abstract view
.subckt sky130_fd_sc_hd__clkbuf_1 A VGND VNB VPB VPWR X
.ends

* Black-box entry subcircuit for sky130_fd_sc_hd__a2111o_1 abstract view
.subckt sky130_fd_sc_hd__a2111o_1 A1 A2 B1 C1 D1 VGND VNB VPB VPWR X
.ends

* Black-box entry subcircuit for sky130_fd_sc_hd__or4_2 abstract view
.subckt sky130_fd_sc_hd__or4_2 A B C D VGND VNB VPB VPWR X
.ends

* Black-box entry subcircuit for sky130_fd_sc_hd__nand2_1 abstract view
.subckt sky130_fd_sc_hd__nand2_1 A B VGND VNB VPB VPWR Y
.ends

* Black-box entry subcircuit for sky130_fd_sc_hd__and4_2 abstract view
.subckt sky130_fd_sc_hd__and4_2 A B C D VGND VNB VPB VPWR X
.ends

* Black-box entry subcircuit for sky130_fd_sc_hd__nand3_1 abstract view
.subckt sky130_fd_sc_hd__nand3_1 A B C VGND VNB VPB VPWR Y
.ends

* Black-box entry subcircuit for sky130_fd_sc_hd__nor3b_1 abstract view
.subckt sky130_fd_sc_hd__nor3b_1 A B C_N VGND VNB VPB VPWR Y
.ends

* Black-box entry subcircuit for sky130_fd_sc_hd__o41a_1 abstract view
.subckt sky130_fd_sc_hd__o41a_1 A1 A2 A3 A4 B1 VGND VNB VPB VPWR X
.ends

* Black-box entry subcircuit for sky130_fd_sc_hd__inv_2 abstract view
.subckt sky130_fd_sc_hd__inv_2 A VGND VNB VPB VPWR Y
.ends

* Black-box entry subcircuit for sky130_fd_sc_hd__or2_2 abstract view
.subckt sky130_fd_sc_hd__or2_2 A B VGND VNB VPB VPWR X
.ends

* Black-box entry subcircuit for sky130_fd_sc_hd__a41oi_1 abstract view
.subckt sky130_fd_sc_hd__a41oi_1 A1 A2 A3 A4 B1 VGND VNB VPB VPWR Y
.ends

* Black-box entry subcircuit for sky130_fd_sc_hd__a2111oi_1 abstract view
.subckt sky130_fd_sc_hd__a2111oi_1 A1 A2 B1 C1 D1 VGND VNB VPB VPWR Y
.ends

.subckt cust_rom addr0[0] addr0[1] addr0[2] addr0[3] addr0[4] addr0[5] addr0[6] clk0
+ cs0 dout0[0] dout0[10] dout0[11] dout0[12] dout0[13] dout0[14] dout0[15] dout0[1]
+ dout0[2] dout0[3] dout0[4] dout0[5] dout0[6] dout0[7] dout0[8] dout0[9] vccd1 vssd1
XFILLER_0_27_93 vccd1 vssd1 vccd1 vssd1 sky130_ef_sc_hd__decap_12
X_432_ net57 net65 _085_ _142_ vssd1 vssd1 vccd1 vccd1 _005_ sky130_fd_sc_hd__a22o_1
X_363_ _194_ net30 net28 _195_ vssd1 vssd1 vccd1 vccd1 _079_ sky130_fd_sc_hd__a22o_1
X_294_ _233_ _234_ vssd1 vssd1 vccd1 vccd1 _235_ sky130_fd_sc_hd__or2_1
XTAP_TAPCELL_ROW_15_106 vssd1 vccd1 sky130_fd_sc_hd__tapvpwrvgnd_1
X_501_ clknet_1_1__leaf_clk0 _012_ vssd1 vssd1 vccd1 vccd1 net12 sky130_fd_sc_hd__dfxtp_1
XFILLER_0_13_51 vssd1 vssd1 vccd1 vccd1 sky130_fd_sc_hd__decap_4
XFILLER_0_13_40 vssd1 vssd1 vccd1 vccd1 sky130_fd_sc_hd__fill_1
XTAP_TAPCELL_ROW_12_98 vssd1 vccd1 sky130_fd_sc_hd__tapvpwrvgnd_1
X_415_ _191_ _228_ vssd1 vssd1 vccd1 vccd1 _127_ sky130_fd_sc_hd__or2_1
XFILLER_0_18_29 vssd1 vssd1 vccd1 vccd1 sky130_fd_sc_hd__decap_4
X_346_ _204_ net29 net27 _206_ vssd1 vssd1 vccd1 vccd1 _062_ sky130_fd_sc_hd__a22oi_1
XFILLER_0_24_83 vssd1 vssd1 vccd1 vccd1 sky130_fd_sc_hd__fill_1
XFILLER_0_24_72 vssd1 vssd1 vccd1 vccd1 sky130_fd_sc_hd__fill_1
X_277_ _200_ net40 net37 _199_ _217_ vssd1 vssd1 vccd1 vccd1 _218_ sky130_fd_sc_hd__a221o_1
XFILLER_0_28_169 vssd1 vssd1 vccd1 vccd1 sky130_fd_sc_hd__decap_4
XFILLER_0_28_147 vccd1 vssd1 vccd1 vssd1 sky130_ef_sc_hd__decap_12
XFILLER_0_28_125 vssd1 vssd1 vccd1 vccd1 sky130_fd_sc_hd__decap_4
X_329_ addr0_reg\[6\] net36 net47 vssd1 vssd1 vccd1 vccd1 _045_ sky130_fd_sc_hd__and3b_1
XFILLER_0_0_29 vccd1 vssd1 vccd1 vssd1 sky130_ef_sc_hd__decap_12
XFILLER_0_19_169 vssd1 vssd1 vccd1 vccd1 sky130_fd_sc_hd__fill_1
XFILLER_0_19_72 vccd1 vssd1 vccd1 vssd1 sky130_ef_sc_hd__decap_12
XTAP_TAPCELL_ROW_5_78 vssd1 vccd1 sky130_fd_sc_hd__tapvpwrvgnd_1
XFILLER_0_21_40 vccd1 vssd1 vccd1 vssd1 sky130_ef_sc_hd__decap_12
XFILLER_0_16_139 vssd1 vssd1 vccd1 vccd1 sky130_fd_sc_hd__fill_1
XFILLER_0_26_29 vccd1 vssd1 vccd1 vssd1 sky130_ef_sc_hd__decap_12
XFILLER_0_15_150 vssd1 vssd1 vccd1 vccd1 sky130_fd_sc_hd__decap_8
XFILLER_0_16_62 vssd1 vssd1 vccd1 vccd1 sky130_fd_sc_hd__fill_1
XFILLER_0_12_164 vssd1 vssd1 vccd1 vccd1 sky130_fd_sc_hd__fill_1
XFILLER_0_12_131 vssd1 vssd1 vccd1 vccd1 sky130_fd_sc_hd__fill_1
Xoutput20 net20 vssd1 vssd1 vccd1 vccd1 dout0[5] sky130_fd_sc_hd__buf_2
XTAP_TAPCELL_ROW_18_115 vssd1 vccd1 sky130_fd_sc_hd__tapvpwrvgnd_1
XTAP_TAPCELL_ROW_2_68 vssd1 vccd1 sky130_fd_sc_hd__tapvpwrvgnd_1
XFILLER_0_5_139 vccd1 vssd1 vccd1 vssd1 sky130_ef_sc_hd__decap_12
XFILLER_0_7_82 vssd1 vssd1 vccd1 vccd1 sky130_fd_sc_hd__decap_6
X_500_ clknet_1_1__leaf_clk0 _011_ vssd1 vssd1 vccd1 vccd1 net11 sky130_fd_sc_hd__dfxtp_1
X_431_ _137_ _141_ vssd1 vssd1 vccd1 vccd1 _142_ sky130_fd_sc_hd__or2_1
X_362_ _215_ net29 net27 _216_ vssd1 vssd1 vccd1 vccd1 _078_ sky130_fd_sc_hd__a22o_1
XTAP_TAPCELL_ROW_15_107 vssd1 vccd1 sky130_fd_sc_hd__tapvpwrvgnd_1
X_293_ net40 net37 _192_ vssd1 vssd1 vccd1 vccd1 _234_ sky130_fd_sc_hd__o21ba_1
XFILLER_0_13_63 vssd1 vssd1 vccd1 vccd1 sky130_fd_sc_hd__decap_4
XTAP_TAPCELL_ROW_12_99 vssd1 vccd1 sky130_fd_sc_hd__tapvpwrvgnd_1
XTAP_TAPCELL_ROW_20_121 vssd1 vccd1 sky130_fd_sc_hd__tapvpwrvgnd_1
X_414_ _202_ _053_ _054_ vssd1 vssd1 vccd1 vccd1 _126_ sky130_fd_sc_hd__or3_1
X_345_ _059_ _060_ vssd1 vssd1 vccd1 vccd1 _061_ sky130_fd_sc_hd__or2_1
X_276_ net40 _215_ _216_ net37 vssd1 vssd1 vccd1 vccd1 _217_ sky130_fd_sc_hd__a22o_1
XPHY_EDGE_ROW_21_Right_21 vssd1 vssd1 vccd1 vccd1 sky130_fd_sc_hd__decap_3
XPHY_EDGE_ROW_12_Right_12 vssd1 vssd1 vccd1 vccd1 sky130_fd_sc_hd__decap_3
XFILLER_0_28_159 vssd1 vssd1 vccd1 vccd1 sky130_fd_sc_hd__decap_8
X_259_ net52 net54 net50 net48 vssd1 vssd1 vccd1 vccd1 _200_ sky130_fd_sc_hd__and4bb_2
XFILLER_0_10_20 vssd1 vssd1 vccd1 vccd1 sky130_fd_sc_hd__decap_4
X_328_ _215_ net33 net31 _216_ vssd1 vssd1 vccd1 vccd1 _044_ sky130_fd_sc_hd__a22o_1
XFILLER_0_19_148 vccd1 vssd1 vccd1 vssd1 sky130_ef_sc_hd__decap_12
XFILLER_0_19_84 vccd1 vssd1 vccd1 vssd1 sky130_ef_sc_hd__decap_12
XFILLER_0_25_129 vssd1 vssd1 vccd1 vccd1 sky130_fd_sc_hd__fill_1
XFILLER_0_25_107 vssd1 vssd1 vccd1 vccd1 sky130_fd_sc_hd__decap_4
XPHY_EDGE_ROW_8_Left_37 vssd1 vssd1 vccd1 vccd1 sky130_fd_sc_hd__decap_3
XFILLER_0_21_74 vssd1 vssd1 vccd1 vccd1 sky130_fd_sc_hd__decap_4
XFILLER_0_21_52 vssd1 vssd1 vccd1 vccd1 sky130_fd_sc_hd__decap_4
XFILLER_0_27_3 vccd1 vssd1 vccd1 vssd1 sky130_ef_sc_hd__decap_12
XFILLER_0_1_51 vssd1 vssd1 vccd1 vccd1 sky130_fd_sc_hd__decap_4
XFILLER_0_16_85 vssd1 vssd1 vccd1 vccd1 sky130_fd_sc_hd__fill_2
XPHY_EDGE_ROW_6_Right_6 vssd1 vssd1 vccd1 vccd1 sky130_fd_sc_hd__decap_3
XFILLER_0_8_115 vssd1 vssd1 vccd1 vccd1 sky130_fd_sc_hd__decap_8
Xoutput10 net10 vssd1 vssd1 vccd1 vccd1 dout0[10] sky130_fd_sc_hd__buf_2
XTAP_TAPCELL_ROW_18_116 vssd1 vccd1 sky130_fd_sc_hd__tapvpwrvgnd_1
Xoutput21 net21 vssd1 vssd1 vccd1 vccd1 dout0[6] sky130_fd_sc_hd__buf_2
XTAP_TAPCELL_ROW_2_69 vssd1 vccd1 sky130_fd_sc_hd__tapvpwrvgnd_1
XFILLER_0_27_51 vssd1 vssd1 vccd1 vccd1 sky130_fd_sc_hd__decap_4
XTAP_TAPCELL_ROW_23_130 vssd1 vccd1 sky130_fd_sc_hd__tapvpwrvgnd_1
X_430_ _197_ _101_ _139_ _140_ vssd1 vssd1 vccd1 vccd1 _141_ sky130_fd_sc_hd__or4_1
XTAP_TAPCELL_ROW_15_108 vssd1 vccd1 sky130_fd_sc_hd__tapvpwrvgnd_1
X_292_ _189_ net40 net37 _190_ vssd1 vssd1 vccd1 vccd1 _233_ sky130_fd_sc_hd__a22o_1
XFILLER_0_7_94 vccd1 vssd1 vccd1 vssd1 sky130_ef_sc_hd__decap_12
X_361_ _222_ net29 net27 _223_ vssd1 vssd1 vccd1 vccd1 _077_ sky130_fd_sc_hd__a22o_1
XTAP_TAPCELL_ROW_20_122 vssd1 vccd1 sky130_fd_sc_hd__tapvpwrvgnd_1
X_413_ _072_ _075_ _124_ vssd1 vssd1 vccd1 vccd1 _125_ sky130_fd_sc_hd__or3_1
X_344_ _216_ net29 net27 _215_ vssd1 vssd1 vccd1 vccd1 _060_ sky130_fd_sc_hd__a22o_1
X_275_ net50 net48 net52 net54 vssd1 vssd1 vccd1 vccd1 _216_ sky130_fd_sc_hd__and4bb_2
XFILLER_0_24_85 vssd1 vssd1 vccd1 vccd1 sky130_fd_sc_hd__fill_2
XFILLER_0_24_41 vssd1 vssd1 vccd1 vccd1 sky130_fd_sc_hd__decap_8
XPHY_EDGE_ROW_24_Left_53 vssd1 vssd1 vccd1 vccd1 sky130_fd_sc_hd__decap_3
XFILLER_0_19_96 vssd1 vssd1 vccd1 vccd1 sky130_fd_sc_hd__decap_6
XFILLER_0_19_30 vssd1 vssd1 vccd1 vccd1 sky130_fd_sc_hd__decap_6
X_258_ net48 net52 net54 net50 vssd1 vssd1 vccd1 vccd1 _199_ sky130_fd_sc_hd__nor4b_2
X_327_ _222_ net33 net31 _223_ vssd1 vssd1 vccd1 vccd1 _043_ sky130_fd_sc_hd__a22o_1
XFILLER_0_24_141 vccd1 vssd1 vccd1 vssd1 sky130_ef_sc_hd__decap_12
XFILLER_0_15_130 vssd1 vssd1 vccd1 vccd1 sky130_fd_sc_hd__fill_2
Xhold10 net23 vssd1 vssd1 vccd1 vccd1 net67 sky130_fd_sc_hd__dlygate4sd3_1
XFILLER_0_6_19 vssd1 vssd1 vccd1 vccd1 sky130_fd_sc_hd__decap_8
XFILLER_0_12_155 vssd1 vssd1 vccd1 vccd1 sky130_fd_sc_hd__fill_2
XPHY_EDGE_ROW_11_Left_40 vssd1 vssd1 vccd1 vccd1 sky130_fd_sc_hd__decap_3
Xoutput11 net11 vssd1 vssd1 vccd1 vccd1 dout0[11] sky130_fd_sc_hd__buf_2
XTAP_TAPCELL_ROW_18_117 vssd1 vccd1 sky130_fd_sc_hd__tapvpwrvgnd_1
Xoutput9 net9 vssd1 vssd1 vccd1 vccd1 dout0[0] sky130_fd_sc_hd__buf_2
XFILLER_0_9_3 vssd1 vssd1 vccd1 vccd1 sky130_fd_sc_hd__decap_3
Xoutput22 net22 vssd1 vssd1 vccd1 vccd1 dout0[7] sky130_fd_sc_hd__buf_2
XTAP_TAPCELL_ROW_23_131 vssd1 vccd1 sky130_fd_sc_hd__tapvpwrvgnd_1
X_291_ net38 _222_ net35 net41 _231_ vssd1 vssd1 vccd1 vccd1 _232_ sky130_fd_sc_hd__a221o_1
X_360_ _072_ _075_ vssd1 vssd1 vccd1 vccd1 _076_ sky130_fd_sc_hd__nor2_1
XFILLER_0_4_141 vssd1 vssd1 vccd1 vccd1 sky130_fd_sc_hd__decap_6
X_489_ clknet_1_0__leaf_clk0 _000_ vssd1 vssd1 vccd1 vccd1 net9 sky130_fd_sc_hd__dfxtp_1
XTAP_TAPCELL_ROW_20_123 vssd1 vccd1 sky130_fd_sc_hd__tapvpwrvgnd_1
XFILLER_0_1_155 vccd1 vssd1 vccd1 vssd1 sky130_ef_sc_hd__decap_12
X_412_ _043_ _050_ _080_ vssd1 vssd1 vccd1 vccd1 _124_ sky130_fd_sc_hd__or3_1
X_343_ net42 net30 net28 _200_ vssd1 vssd1 vccd1 vccd1 _059_ sky130_fd_sc_hd__a22o_1
X_274_ net52 net54 net50 net48 vssd1 vssd1 vccd1 vccd1 _215_ sky130_fd_sc_hd__and4b_2
XFILLER_0_4_41 vccd1 vssd1 vccd1 vssd1 sky130_ef_sc_hd__decap_12
XFILLER_0_4_85 vssd1 vssd1 vccd1 vccd1 sky130_fd_sc_hd__decap_4
XFILLER_0_28_139 vssd1 vssd1 vccd1 vccd1 sky130_fd_sc_hd__fill_1
X_257_ net43 _194_ _195_ net45 vssd1 vssd1 vccd1 vccd1 _198_ sky130_fd_sc_hd__a22o_1
X_326_ _035_ _041_ vssd1 vssd1 vccd1 vccd1 _042_ sky130_fd_sc_hd__or2_1
XTAP_TAPCELL_ROW_9_90 vssd1 vccd1 sky130_fd_sc_hd__tapvpwrvgnd_1
X_309_ addr0_reg\[4\] addr0_reg\[6\] net36 vssd1 vssd1 vccd1 vccd1 _025_ sky130_fd_sc_hd__and3_1
XFILLER_0_24_153 vssd1 vssd1 vccd1 vccd1 sky130_fd_sc_hd__decap_4
Xhold11 net12 vssd1 vssd1 vccd1 vccd1 net68 sky130_fd_sc_hd__dlygate4sd3_1
XFILLER_0_16_98 vssd1 vssd1 vccd1 vccd1 sky130_fd_sc_hd__fill_1
XFILLER_0_16_54 vssd1 vssd1 vccd1 vccd1 sky130_fd_sc_hd__decap_8
XTAP_TAPCELL_ROW_6_80 vssd1 vccd1 sky130_fd_sc_hd__tapvpwrvgnd_1
XFILLER_0_8_139 vssd1 vssd1 vccd1 vccd1 sky130_fd_sc_hd__fill_1
Xoutput23 net23 vssd1 vssd1 vccd1 vccd1 dout0[8] sky130_fd_sc_hd__buf_2
Xoutput12 net12 vssd1 vssd1 vccd1 vccd1 dout0[12] sky130_fd_sc_hd__buf_2
XFILLER_0_7_150 vssd1 vssd1 vccd1 vccd1 sky130_fd_sc_hd__decap_3
XTAP_TAPCELL_ROW_26_140 vssd1 vccd1 sky130_fd_sc_hd__tapvpwrvgnd_1
XFILLER_0_7_41 vssd1 vssd1 vccd1 vccd1 sky130_fd_sc_hd__fill_2
XTAP_TAPCELL_ROW_23_132 vssd1 vccd1 sky130_fd_sc_hd__tapvpwrvgnd_1
X_290_ _195_ net41 net38 _194_ vssd1 vssd1 vccd1 vccd1 _231_ sky130_fd_sc_hd__a22o_1
XFILLER_0_13_55 vssd1 vssd1 vccd1 vccd1 sky130_fd_sc_hd__fill_1
XFILLER_0_13_22 vccd1 vssd1 vccd1 vssd1 sky130_ef_sc_hd__decap_12
XFILLER_0_13_11 vssd1 vssd1 vccd1 vccd1 sky130_fd_sc_hd__fill_1
X_488_ clknet_1_0__leaf_clk0 net7 vssd1 vssd1 vccd1 vccd1 addr0_reg\[6\] sky130_fd_sc_hd__dfxtp_1
XFILLER_0_1_167 vssd1 vssd1 vccd1 vccd1 sky130_fd_sc_hd__fill_1
XTAP_TAPCELL_ROW_3_70 vssd1 vccd1 sky130_fd_sc_hd__tapvpwrvgnd_1
X_411_ net56 net61 net25 _123_ vssd1 vssd1 vccd1 vccd1 _003_ sky130_fd_sc_hd__a22o_1
X_342_ net47 addr0_reg\[5\] addr0_reg\[6\] vssd1 vssd1 vccd1 vccd1 _058_ sky130_fd_sc_hd__nor3_1
X_273_ _200_ net40 net37 _199_ vssd1 vssd1 vccd1 vccd1 _214_ sky130_fd_sc_hd__a22oi_1
XFILLER_0_4_53 vssd1 vssd1 vccd1 vccd1 sky130_fd_sc_hd__decap_6
XFILLER_0_4_64 vssd1 vssd1 vccd1 vccd1 sky130_fd_sc_hd__fill_2
X_256_ _188_ _191_ _196_ vssd1 vssd1 vccd1 vccd1 _197_ sky130_fd_sc_hd__or3_1
X_325_ _036_ _037_ _038_ _039_ vssd1 vssd1 vccd1 vccd1 _041_ sky130_fd_sc_hd__or4_1
XTAP_TAPCELL_ROW_0_60 vssd1 vccd1 sky130_fd_sc_hd__tapvpwrvgnd_1
Xclkload0 clknet_1_1__leaf_clk0 vssd1 vssd1 vccd1 vccd1 clkload0/Y sky130_fd_sc_hd__clkinv_2
XFILLER_0_24_110 vssd1 vssd1 vccd1 vccd1 sky130_fd_sc_hd__fill_1
XFILLER_0_21_99 vssd1 vssd1 vccd1 vccd1 sky130_fd_sc_hd__fill_2
X_308_ net46 _204_ _206_ net44 vssd1 vssd1 vccd1 vccd1 _024_ sky130_fd_sc_hd__a22o_1
Xhold12 net24 vssd1 vssd1 vccd1 vccd1 net69 sky130_fd_sc_hd__dlygate4sd3_1
XTAP_TAPCELL_ROW_10_91 vssd1 vccd1 sky130_fd_sc_hd__tapvpwrvgnd_1
XFILLER_0_12_113 vccd1 vssd1 vccd1 vssd1 sky130_ef_sc_hd__decap_12
XTAP_TAPCELL_ROW_6_81 vssd1 vccd1 sky130_fd_sc_hd__tapvpwrvgnd_1
XFILLER_0_8_129 vssd1 vssd1 vccd1 vccd1 sky130_fd_sc_hd__fill_1
XFILLER_0_25_3 vccd1 vssd1 vccd1 vssd1 sky130_ef_sc_hd__decap_12
Xoutput13 net13 vssd1 vssd1 vccd1 vccd1 dout0[13] sky130_fd_sc_hd__buf_2
Xoutput24 net24 vssd1 vssd1 vccd1 vccd1 dout0[9] sky130_fd_sc_hd__buf_2
XPHY_EDGE_ROW_28_Right_28 vssd1 vssd1 vccd1 vccd1 sky130_fd_sc_hd__decap_3
XTAP_TAPCELL_ROW_26_141 vssd1 vccd1 sky130_fd_sc_hd__tapvpwrvgnd_1
XPHY_EDGE_ROW_19_Right_19 vssd1 vssd1 vccd1 vccd1 sky130_fd_sc_hd__decap_3
XFILLER_0_13_67 vssd1 vssd1 vccd1 vccd1 sky130_fd_sc_hd__fill_1
XFILLER_0_13_34 vssd1 vssd1 vccd1 vccd1 sky130_fd_sc_hd__decap_6
XFILLER_0_1_113 vccd1 vssd1 vccd1 vssd1 sky130_ef_sc_hd__decap_12
X_487_ clknet_1_0__leaf_clk0 net6 vssd1 vssd1 vccd1 vccd1 addr0_reg\[5\] sky130_fd_sc_hd__dfxtp_1
XTAP_TAPCELL_ROW_3_71 vssd1 vccd1 sky130_fd_sc_hd__tapvpwrvgnd_1
X_410_ _097_ _120_ _121_ _122_ vssd1 vssd1 vccd1 vccd1 _123_ sky130_fd_sc_hd__or4_1
X_341_ addr0_reg\[6\] addr0_reg\[5\] net47 vssd1 vssd1 vccd1 vccd1 _057_ sky130_fd_sc_hd__and3b_1
X_272_ _211_ _212_ vssd1 vssd1 vccd1 vccd1 _213_ sky130_fd_sc_hd__or2_1
XFILLER_0_4_98 vssd1 vssd1 vccd1 vccd1 sky130_fd_sc_hd__decap_8
X_324_ _036_ _038_ vssd1 vssd1 vccd1 vccd1 _040_ sky130_fd_sc_hd__or2_1
X_255_ net45 _194_ _195_ net43 vssd1 vssd1 vccd1 vccd1 _196_ sky130_fd_sc_hd__a22o_1
XFILLER_0_10_24 vssd1 vssd1 vccd1 vccd1 sky130_fd_sc_hd__fill_1
XFILLER_0_19_108 vssd1 vssd1 vccd1 vccd1 sky130_fd_sc_hd__decap_4
XFILLER_0_19_55 vssd1 vssd1 vccd1 vccd1 sky130_fd_sc_hd__fill_1
XFILLER_0_19_44 vssd1 vssd1 vccd1 vccd1 sky130_fd_sc_hd__decap_4
XTAP_TAPCELL_ROW_0_61 vssd1 vccd1 sky130_fd_sc_hd__tapvpwrvgnd_1
XFILLER_0_18_141 vssd1 vssd1 vccd1 vccd1 sky130_fd_sc_hd__decap_8
XPHY_EDGE_ROW_28_Left_57 vssd1 vssd1 vccd1 vccd1 sky130_fd_sc_hd__decap_3
XFILLER_0_21_78 vssd1 vssd1 vccd1 vccd1 sky130_fd_sc_hd__fill_1
XFILLER_0_21_34 vssd1 vssd1 vccd1 vccd1 sky130_fd_sc_hd__fill_1
X_307_ _021_ _022_ vssd1 vssd1 vccd1 vccd1 _023_ sky130_fd_sc_hd__or2_1
XFILLER_0_1_55 vssd1 vssd1 vccd1 vccd1 sky130_fd_sc_hd__fill_1
Xhold13 net16 vssd1 vssd1 vccd1 vccd1 net70 sky130_fd_sc_hd__dlygate4sd3_1
XTAP_TAPCELL_ROW_10_92 vssd1 vccd1 sky130_fd_sc_hd__tapvpwrvgnd_1
XFILLER_0_21_169 vssd1 vssd1 vccd1 vccd1 sky130_fd_sc_hd__fill_1
XFILLER_0_8_108 vssd1 vssd1 vccd1 vccd1 sky130_fd_sc_hd__fill_1
XFILLER_0_18_3 vssd1 vssd1 vccd1 vccd1 sky130_fd_sc_hd__decap_8
XFILLER_0_12_147 vssd1 vssd1 vccd1 vccd1 sky130_fd_sc_hd__decap_8
XFILLER_0_12_125 vssd1 vssd1 vccd1 vccd1 sky130_fd_sc_hd__decap_6
Xoutput14 net14 vssd1 vssd1 vccd1 vccd1 dout0[14] sky130_fd_sc_hd__buf_2
XFILLER_0_27_55 vssd1 vssd1 vccd1 vccd1 sky130_fd_sc_hd__fill_1
XPHY_EDGE_ROW_15_Left_44 vssd1 vssd1 vccd1 vccd1 sky130_fd_sc_hd__decap_3
XFILLER_0_4_111 vccd1 vssd1 vccd1 vssd1 sky130_ef_sc_hd__decap_12
XFILLER_0_7_65 vssd1 vssd1 vccd1 vccd1 sky130_fd_sc_hd__decap_3
XFILLER_0_1_169 vssd1 vssd1 vccd1 vccd1 sky130_fd_sc_hd__decap_4
XFILLER_0_1_125 vssd1 vssd1 vccd1 vccd1 sky130_fd_sc_hd__decap_6
X_486_ clknet_1_0__leaf_clk0 net5 vssd1 vssd1 vccd1 vccd1 addr0_reg\[4\] sky130_fd_sc_hd__dfxtp_1
XTAP_TAPCELL_ROW_3_72 vssd1 vccd1 sky130_fd_sc_hd__tapvpwrvgnd_1
XPHY_EDGE_ROW_0_Left_29 vssd1 vssd1 vccd1 vccd1 sky130_fd_sc_hd__decap_3
XFILLER_0_24_56 vccd1 vssd1 vccd1 vssd1 sky130_ef_sc_hd__decap_12
X_271_ _184_ net44 _187_ net46 vssd1 vssd1 vccd1 vccd1 _212_ sky130_fd_sc_hd__a22o_1
X_340_ _035_ _041_ _049_ _055_ vssd1 vssd1 vccd1 vccd1 _056_ sky130_fd_sc_hd__nor4_1
X_469_ _126_ _171_ _172_ _173_ vssd1 vssd1 vccd1 vccd1 _174_ sky130_fd_sc_hd__or4_1
XFILLER_0_28_109 vssd1 vssd1 vccd1 vccd1 sky130_fd_sc_hd__decap_3
X_323_ _190_ net34 net32 _189_ vssd1 vssd1 vccd1 vccd1 _039_ sky130_fd_sc_hd__a22o_1
X_254_ net49 net53 net55 net51 vssd1 vssd1 vccd1 vccd1 _195_ sky130_fd_sc_hd__and4bb_2
XTAP_TAPCELL_ROW_0_62 vssd1 vccd1 sky130_fd_sc_hd__tapvpwrvgnd_1
XFILLER_0_21_57 vssd1 vssd1 vccd1 vccd1 sky130_fd_sc_hd__decap_4
X_306_ net43 _215_ _216_ net45 vssd1 vssd1 vccd1 vccd1 _022_ sky130_fd_sc_hd__a22o_1
XPHY_EDGE_ROW_3_Left_32 vssd1 vssd1 vccd1 vccd1 sky130_fd_sc_hd__decap_3
Xhold14 net13 vssd1 vssd1 vccd1 vccd1 net71 sky130_fd_sc_hd__dlygate4sd3_1
XFILLER_0_21_159 vssd1 vssd1 vccd1 vccd1 sky130_fd_sc_hd__fill_1
XTAP_TAPCELL_ROW_10_93 vssd1 vccd1 sky130_fd_sc_hd__tapvpwrvgnd_1
XPHY_EDGE_ROW_1_Right_1 vssd1 vssd1 vccd1 vccd1 sky130_fd_sc_hd__decap_3
Xoutput15 net15 vssd1 vssd1 vccd1 vccd1 dout0[15] sky130_fd_sc_hd__buf_2
XFILLER_0_7_142 vssd1 vssd1 vccd1 vccd1 sky130_fd_sc_hd__decap_8
XFILLER_0_4_123 vccd1 vssd1 vccd1 vssd1 sky130_ef_sc_hd__decap_12
XFILLER_0_7_55 vssd1 vssd1 vccd1 vccd1 sky130_fd_sc_hd__fill_1
XFILLER_0_7_88 vssd1 vssd1 vccd1 vccd1 sky130_fd_sc_hd__fill_1
X_485_ clknet_1_0__leaf_clk0 net4 vssd1 vssd1 vccd1 vccd1 addr0_reg\[3\] sky130_fd_sc_hd__dfxtp_1
X_270_ net44 _189_ _190_ net46 vssd1 vssd1 vccd1 vccd1 _211_ sky130_fd_sc_hd__a22o_1
X_468_ _224_ _019_ _022_ _078_ vssd1 vssd1 vccd1 vccd1 _173_ sky130_fd_sc_hd__or4_1
XFILLER_0_24_79 vssd1 vssd1 vccd1 vccd1 sky130_fd_sc_hd__decap_4
XFILLER_0_24_68 vssd1 vssd1 vccd1 vccd1 sky130_fd_sc_hd__decap_4
XFILLER_0_4_23 vssd1 vssd1 vccd1 vccd1 sky130_fd_sc_hd__fill_1
X_399_ _030_ _067_ vssd1 vssd1 vccd1 vccd1 _113_ sky130_fd_sc_hd__or2_1
X_322_ _195_ net34 net32 _194_ vssd1 vssd1 vccd1 vccd1 _038_ sky130_fd_sc_hd__a22o_1
XFILLER_0_19_57 vssd1 vssd1 vccd1 vccd1 sky130_fd_sc_hd__decap_8
X_253_ net51 net49 net53 net55 vssd1 vssd1 vccd1 vccd1 _194_ sky130_fd_sc_hd__and4b_2
XTAP_TAPCELL_ROW_0_63 vssd1 vccd1 sky130_fd_sc_hd__tapvpwrvgnd_1
Xfanout50 addr0_reg\[2\] vssd1 vssd1 vccd1 vccd1 net50 sky130_fd_sc_hd__buf_2
XFILLER_0_24_157 vssd1 vssd1 vccd1 vccd1 sky130_fd_sc_hd__fill_1
X_305_ net43 _222_ net35 net45 vssd1 vssd1 vccd1 vccd1 _021_ sky130_fd_sc_hd__a22o_1
XFILLER_0_1_79 vssd1 vssd1 vccd1 vccd1 sky130_fd_sc_hd__fill_1
XFILLER_0_11_80 vssd1 vssd1 vccd1 vccd1 sky130_fd_sc_hd__decap_8
XFILLER_0_21_138 vssd1 vssd1 vccd1 vccd1 sky130_fd_sc_hd__fill_1
Xhold15 net9 vssd1 vssd1 vccd1 vccd1 net72 sky130_fd_sc_hd__dlygate4sd3_1
XFILLER_0_12_138 vssd1 vssd1 vccd1 vccd1 sky130_fd_sc_hd__fill_2
XFILLER_0_12_105 vssd1 vssd1 vccd1 vccd1 sky130_fd_sc_hd__decap_3
Xoutput16 net16 vssd1 vssd1 vccd1 vccd1 dout0[1] sky130_fd_sc_hd__clkbuf_4
XFILLER_0_22_90 vccd1 vssd1 vccd1 vssd1 sky130_ef_sc_hd__decap_12
XFILLER_0_27_57 vccd1 vssd1 vccd1 vssd1 sky130_ef_sc_hd__decap_12
XPHY_EDGE_ROW_24_Right_24 vssd1 vssd1 vccd1 vccd1 sky130_fd_sc_hd__decap_3
XFILLER_0_23_3 vccd1 vssd1 vccd1 vssd1 sky130_ef_sc_hd__decap_12
XPHY_EDGE_ROW_15_Right_15 vssd1 vssd1 vccd1 vccd1 sky130_fd_sc_hd__decap_3
XFILLER_0_4_135 vssd1 vssd1 vccd1 vccd1 sky130_fd_sc_hd__fill_1
XTAP_TAPCELL_ROW_14_103 vssd1 vccd1 sky130_fd_sc_hd__tapvpwrvgnd_1
X_484_ clknet_1_0__leaf_clk0 net3 vssd1 vssd1 vccd1 vccd1 addr0_reg\[2\] sky130_fd_sc_hd__dfxtp_1
X_398_ _229_ _235_ _040_ _052_ vssd1 vssd1 vccd1 vccd1 _112_ sky130_fd_sc_hd__or4_1
X_467_ _188_ _016_ _127_ vssd1 vssd1 vccd1 vccd1 _172_ sky130_fd_sc_hd__or3_1
Xclkbuf_1_0__f_clk0 clknet_0_clk0 vssd1 vssd1 vccd1 vccd1 clknet_1_0__leaf_clk0 sky130_fd_sc_hd__clkbuf_16
XFILLER_0_19_36 vssd1 vssd1 vccd1 vccd1 sky130_fd_sc_hd__fill_1
Xfanout40 _203_ vssd1 vssd1 vccd1 vccd1 net40 sky130_fd_sc_hd__buf_2
X_321_ net33 net31 _192_ vssd1 vssd1 vccd1 vccd1 _037_ sky130_fd_sc_hd__o21ba_1
X_252_ net46 net44 _192_ vssd1 vssd1 vccd1 vccd1 _193_ sky130_fd_sc_hd__o21ba_1
Xfanout51 addr0_reg\[2\] vssd1 vssd1 vccd1 vccd1 net51 sky130_fd_sc_hd__buf_1
XFILLER_0_27_111 vssd1 vssd1 vccd1 vccd1 sky130_fd_sc_hd__fill_1
XFILLER_0_21_15 vssd1 vssd1 vccd1 vccd1 sky130_fd_sc_hd__decap_6
X_304_ _240_ _016_ _018_ _019_ vssd1 vssd1 vccd1 vccd1 _020_ sky130_fd_sc_hd__or4_1
XFILLER_0_15_169 vssd1 vssd1 vccd1 vccd1 sky130_fd_sc_hd__fill_1
XFILLER_0_15_158 vssd1 vssd1 vccd1 vccd1 sky130_fd_sc_hd__fill_2
Xhold16 net19 vssd1 vssd1 vccd1 vccd1 net73 sky130_fd_sc_hd__dlygate4sd3_1
XFILLER_0_21_106 vssd1 vssd1 vccd1 vccd1 sky130_fd_sc_hd__decap_6
XFILLER_0_16_37 vssd1 vssd1 vccd1 vccd1 sky130_fd_sc_hd__decap_3
XFILLER_0_16_15 vccd1 vssd1 vccd1 vssd1 sky130_ef_sc_hd__decap_12
Xoutput17 net17 vssd1 vssd1 vccd1 vccd1 dout0[2] sky130_fd_sc_hd__buf_2
XFILLER_0_27_69 vccd1 vssd1 vccd1 vssd1 sky130_ef_sc_hd__decap_12
XTAP_TAPCELL_ROW_17_112 vssd1 vccd1 sky130_fd_sc_hd__tapvpwrvgnd_1
XFILLER_0_16_3 vccd1 vssd1 vccd1 vssd1 sky130_ef_sc_hd__decap_12
XFILLER_0_7_57 vssd1 vssd1 vccd1 vccd1 sky130_fd_sc_hd__decap_8
XTAP_TAPCELL_ROW_14_104 vssd1 vccd1 sky130_fd_sc_hd__tapvpwrvgnd_1
X_483_ clknet_1_0__leaf_clk0 net2 vssd1 vssd1 vccd1 vccd1 addr0_reg\[1\] sky130_fd_sc_hd__dfxtp_1
XPHY_EDGE_ROW_19_Left_48 vssd1 vssd1 vccd1 vccd1 sky130_fd_sc_hd__decap_3
XFILLER_0_0_161 vssd1 vssd1 vccd1 vccd1 sky130_fd_sc_hd__decap_6
X_466_ _047_ _064_ vssd1 vssd1 vccd1 vccd1 _171_ sky130_fd_sc_hd__or2_1
XFILLER_0_24_15 vccd1 vssd1 vccd1 vssd1 sky130_ef_sc_hd__decap_12
X_397_ _082_ _108_ _110_ vssd1 vssd1 vccd1 vccd1 _111_ sky130_fd_sc_hd__or3_1
XFILLER_0_19_15 vssd1 vssd1 vccd1 vccd1 sky130_fd_sc_hd__decap_8
Xfanout41 _203_ vssd1 vssd1 vccd1 vccd1 net41 sky130_fd_sc_hd__clkbuf_2
X_320_ _187_ net34 net32 _184_ vssd1 vssd1 vccd1 vccd1 _036_ sky130_fd_sc_hd__a22o_1
Xfanout30 _057_ vssd1 vssd1 vccd1 vccd1 net30 sky130_fd_sc_hd__clkbuf_2
X_251_ net50 net52 net54 net48 vssd1 vssd1 vccd1 vccd1 _192_ sky130_fd_sc_hd__or4b_1
Xfanout52 addr0_reg\[1\] vssd1 vssd1 vccd1 vccd1 net52 sky130_fd_sc_hd__clkbuf_2
X_449_ _212_ _031_ _045_ _070_ vssd1 vssd1 vccd1 vccd1 _157_ sky130_fd_sc_hd__or4_1
XFILLER_0_24_126 vccd1 vssd1 vccd1 vssd1 sky130_ef_sc_hd__decap_12
XFILLER_0_24_104 vssd1 vssd1 vccd1 vccd1 sky130_fd_sc_hd__decap_6
X_303_ net45 _222_ net35 net43 vssd1 vssd1 vccd1 vccd1 _019_ sky130_fd_sc_hd__a22o_1
XFILLER_0_1_15 vccd1 vssd1 vccd1 vssd1 sky130_ef_sc_hd__decap_12
XPHY_EDGE_ROW_7_Left_36 vssd1 vssd1 vccd1 vccd1 sky130_fd_sc_hd__decap_3
XFILLER_0_21_118 vccd1 vssd1 vccd1 vssd1 sky130_ef_sc_hd__decap_12
XFILLER_0_16_27 vssd1 vssd1 vccd1 vccd1 sky130_fd_sc_hd__fill_1
Xoutput18 net18 vssd1 vssd1 vccd1 vccd1 dout0[3] sky130_fd_sc_hd__buf_2
XFILLER_0_27_15 vccd1 vssd1 vccd1 vssd1 sky130_ef_sc_hd__decap_12
XTAP_TAPCELL_ROW_17_113 vssd1 vccd1 sky130_fd_sc_hd__tapvpwrvgnd_1
XFILLER_0_17_81 vssd1 vssd1 vccd1 vccd1 sky130_fd_sc_hd__fill_1
XPHY_EDGE_ROW_5_Right_5 vssd1 vssd1 vccd1 vccd1 sky130_fd_sc_hd__decap_3
XTAP_TAPCELL_ROW_14_105 vssd1 vccd1 sky130_fd_sc_hd__tapvpwrvgnd_1
X_482_ clknet_1_0__leaf_clk0 net1 vssd1 vssd1 vccd1 vccd1 addr0_reg\[0\] sky130_fd_sc_hd__dfxtp_1
XFILLER_0_0_173 vssd1 vssd1 vccd1 vccd1 sky130_fd_sc_hd__fill_1
XFILLER_0_24_27 vssd1 vssd1 vccd1 vccd1 sky130_fd_sc_hd__fill_1
X_465_ net57 net60 _085_ _170_ vssd1 vssd1 vccd1 vccd1 _010_ sky130_fd_sc_hd__a22o_1
XPHY_EDGE_ROW_20_Left_49 vssd1 vssd1 vccd1 vccd1 sky130_fd_sc_hd__decap_3
X_396_ _226_ _102_ _109_ vssd1 vssd1 vccd1 vccd1 _110_ sky130_fd_sc_hd__or3_1
XFILLER_0_4_59 vssd1 vssd1 vccd1 vccd1 sky130_fd_sc_hd__fill_1
X_250_ net46 _189_ _190_ net44 vssd1 vssd1 vccd1 vccd1 _191_ sky130_fd_sc_hd__a22o_1
Xfanout53 addr0_reg\[1\] vssd1 vssd1 vccd1 vccd1 net53 sky130_fd_sc_hd__buf_1
Xfanout31 _029_ vssd1 vssd1 vccd1 vccd1 net31 sky130_fd_sc_hd__buf_2
XFILLER_0_27_157 vssd1 vssd1 vccd1 vccd1 sky130_fd_sc_hd__decap_3
XFILLER_0_27_113 vssd1 vssd1 vccd1 vccd1 sky130_fd_sc_hd__decap_4
X_448_ _188_ _193_ _074_ vssd1 vssd1 vccd1 vccd1 _156_ sky130_fd_sc_hd__or3_1
X_379_ _059_ _064_ vssd1 vssd1 vccd1 vccd1 _094_ sky130_fd_sc_hd__or2_1
XFILLER_0_25_81 vccd1 vssd1 vccd1 vssd1 sky130_ef_sc_hd__decap_12
XFILLER_0_24_138 vssd1 vssd1 vccd1 vccd1 sky130_fd_sc_hd__fill_2
XFILLER_0_21_28 vssd1 vssd1 vccd1 vccd1 sky130_fd_sc_hd__decap_6
X_302_ net43 net42 _200_ net45 vssd1 vssd1 vccd1 vccd1 _018_ sky130_fd_sc_hd__a22o_1
XFILLER_0_1_27 vccd1 vssd1 vccd1 vssd1 sky130_ef_sc_hd__decap_12
XPHY_EDGE_ROW_23_Left_52 vssd1 vssd1 vccd1 vccd1 sky130_fd_sc_hd__decap_3
XFILLER_0_15_138 vccd1 vssd1 vccd1 vssd1 sky130_ef_sc_hd__decap_12
XFILLER_0_20_130 vssd1 vssd1 vccd1 vccd1 sky130_fd_sc_hd__decap_8
XFILLER_0_7_113 vccd1 vssd1 vccd1 vssd1 sky130_ef_sc_hd__decap_12
Xoutput19 net19 vssd1 vssd1 vccd1 vccd1 dout0[4] sky130_fd_sc_hd__clkbuf_4
XFILLER_0_11_152 vssd1 vssd1 vccd1 vccd1 sky130_fd_sc_hd__fill_1
XFILLER_0_2_92 vssd1 vssd1 vccd1 vccd1 sky130_fd_sc_hd__decap_8
XFILLER_0_2_81 vssd1 vssd1 vccd1 vccd1 sky130_fd_sc_hd__decap_3
XFILLER_0_27_27 vccd1 vssd1 vccd1 vssd1 sky130_ef_sc_hd__decap_12
XTAP_TAPCELL_ROW_17_114 vssd1 vccd1 sky130_fd_sc_hd__tapvpwrvgnd_1
XPHY_EDGE_ROW_20_Right_20 vssd1 vssd1 vccd1 vccd1 sky130_fd_sc_hd__decap_3
XPHY_EDGE_ROW_11_Right_11 vssd1 vssd1 vccd1 vccd1 sky130_fd_sc_hd__decap_3
X_481_ net56 net59 _027_ vssd1 vssd1 vccd1 vccd1 _015_ sky130_fd_sc_hd__a21o_1