* NGSPICE file created from cust_rom.ext - technology: sky130A

* Black-box entry subcircuit for sky130_fd_sc_hd__tapvpwrvgnd_1 abstract view
.subckt sky130_fd_sc_hd__tapvpwrvgnd_1 VGND VPWR
.ends

* Black-box entry subcircuit for sky130_fd_sc_hd__decap_4 abstract view
.subckt sky130_fd_sc_hd__decap_4 VGND VNB VPB VPWR
.ends

* Black-box entry subcircuit for sky130_fd_sc_hd__or2_1 abstract view
.subckt sky130_fd_sc_hd__or2_1 A B VGND VNB VPB VPWR X
.ends

* Black-box entry subcircuit for sky130_ef_sc_hd__decap_12 abstract view
.subckt sky130_ef_sc_hd__decap_12 VPWR VGND VPB VNB
.ends

* Black-box entry subcircuit for sky130_fd_sc_hd__clkbuf_2 abstract view
.subckt sky130_fd_sc_hd__clkbuf_2 A VGND VNB VPB VPWR X
.ends

* Black-box entry subcircuit for sky130_fd_sc_hd__buf_2 abstract view
.subckt sky130_fd_sc_hd__buf_2 A VGND VNB VPB VPWR X
.ends

* Black-box entry subcircuit for sky130_fd_sc_hd__dlymetal6s2s_1 abstract view
.subckt sky130_fd_sc_hd__dlymetal6s2s_1 A VGND VNB VPB VPWR X
.ends

* Black-box entry subcircuit for sky130_fd_sc_hd__or4_1 abstract view
.subckt sky130_fd_sc_hd__or4_1 A B C D VGND VNB VPB VPWR X
.ends

* Black-box entry subcircuit for sky130_fd_sc_hd__decap_8 abstract view
.subckt sky130_fd_sc_hd__decap_8 VGND VNB VPB VPWR
.ends

* Black-box entry subcircuit for sky130_fd_sc_hd__or4_2 abstract view
.subckt sky130_fd_sc_hd__or4_2 A B C D VGND VNB VPB VPWR X
.ends

* Black-box entry subcircuit for sky130_fd_sc_hd__a22o_1 abstract view
.subckt sky130_fd_sc_hd__a22o_1 A1 A2 B1 B2 VGND VNB VPB VPWR X
.ends

* Black-box entry subcircuit for sky130_fd_sc_hd__a22oi_4 abstract view
.subckt sky130_fd_sc_hd__a22oi_4 A1 A2 B1 B2 VGND VNB VPB VPWR Y
.ends

* Black-box entry subcircuit for sky130_fd_sc_hd__decap_3 abstract view
.subckt sky130_fd_sc_hd__decap_3 VGND VNB VPB VPWR
.ends

* Black-box entry subcircuit for sky130_fd_sc_hd__o21ba_2 abstract view
.subckt sky130_fd_sc_hd__o21ba_2 A1 A2 B1_N VGND VNB VPB VPWR X
.ends

* Black-box entry subcircuit for sky130_fd_sc_hd__or3_1 abstract view
.subckt sky130_fd_sc_hd__or3_1 A B C VGND VNB VPB VPWR X
.ends

* Black-box entry subcircuit for sky130_fd_sc_hd__clkbuf_1 abstract view
.subckt sky130_fd_sc_hd__clkbuf_1 A VGND VNB VPB VPWR X
.ends

* Black-box entry subcircuit for sky130_fd_sc_hd__fill_1 abstract view
.subckt sky130_fd_sc_hd__fill_1 VGND VNB VPB VPWR
.ends

* Black-box entry subcircuit for sky130_fd_sc_hd__decap_6 abstract view
.subckt sky130_fd_sc_hd__decap_6 VGND VNB VPB VPWR
.ends

* Black-box entry subcircuit for sky130_fd_sc_hd__fill_2 abstract view
.subckt sky130_fd_sc_hd__fill_2 VGND VNB VPB VPWR
.ends

* Black-box entry subcircuit for sky130_fd_sc_hd__and4bb_1 abstract view
.subckt sky130_fd_sc_hd__and4bb_1 A_N B_N C D VGND VNB VPB VPWR X
.ends

* Black-box entry subcircuit for sky130_fd_sc_hd__dlygate4sd3_1 abstract view
.subckt sky130_fd_sc_hd__dlygate4sd3_1 A VGND VNB VPB VPWR X
.ends

* Black-box entry subcircuit for sky130_fd_sc_hd__diode_2 abstract view
.subckt sky130_fd_sc_hd__diode_2 DIODE VGND VNB VPB VPWR
.ends

* Black-box entry subcircuit for sky130_fd_sc_hd__buf_1 abstract view
.subckt sky130_fd_sc_hd__buf_1 A VGND VNB VPB VPWR X
.ends

* Black-box entry subcircuit for sky130_fd_sc_hd__clkbuf_4 abstract view
.subckt sky130_fd_sc_hd__clkbuf_4 A VGND VNB VPB VPWR X
.ends

* Black-box entry subcircuit for sky130_fd_sc_hd__or2_2 abstract view
.subckt sky130_fd_sc_hd__or2_2 A B VGND VNB VPB VPWR X
.ends

* Black-box entry subcircuit for sky130_fd_sc_hd__or3b_1 abstract view
.subckt sky130_fd_sc_hd__or3b_1 A B C_N VGND VNB VPB VPWR X
.ends

* Black-box entry subcircuit for sky130_fd_sc_hd__and4b_1 abstract view
.subckt sky130_fd_sc_hd__and4b_1 A_N B C D VGND VNB VPB VPWR X
.ends

* Black-box entry subcircuit for sky130_fd_sc_hd__a22o_2 abstract view
.subckt sky130_fd_sc_hd__a22o_2 A1 A2 B1 B2 VGND VNB VPB VPWR X
.ends

* Black-box entry subcircuit for sky130_fd_sc_hd__dfxtp_1 abstract view
.subckt sky130_fd_sc_hd__dfxtp_1 CLK D VGND VNB VPB VPWR Q
.ends

* Black-box entry subcircuit for sky130_fd_sc_hd__or4_4 abstract view
.subckt sky130_fd_sc_hd__or4_4 A B C D VGND VNB VPB VPWR X
.ends

* Black-box entry subcircuit for sky130_fd_sc_hd__or4bb_1 abstract view
.subckt sky130_fd_sc_hd__or4bb_1 A B C_N D_N VGND VNB VPB VPWR X
.ends

* Black-box entry subcircuit for sky130_fd_sc_hd__o31a_1 abstract view
.subckt sky130_fd_sc_hd__o31a_1 A1 A2 A3 B1 VGND VNB VPB VPWR X
.ends

* Black-box entry subcircuit for sky130_fd_sc_hd__or3_2 abstract view
.subckt sky130_fd_sc_hd__or3_2 A B C VGND VNB VPB VPWR X
.ends

* Black-box entry subcircuit for sky130_fd_sc_hd__o21ai_1 abstract view
.subckt sky130_fd_sc_hd__o21ai_1 A1 A2 B1 VGND VNB VPB VPWR Y
.ends

* Black-box entry subcircuit for sky130_fd_sc_hd__clkinv_4 abstract view
.subckt sky130_fd_sc_hd__clkinv_4 A VGND VNB VPB VPWR Y
.ends

* Black-box entry subcircuit for sky130_fd_sc_hd__bufinv_16 abstract view
.subckt sky130_fd_sc_hd__bufinv_16 A VGND VNB VPB VPWR Y
.ends

* Black-box entry subcircuit for sky130_fd_sc_hd__or4b_4 abstract view
.subckt sky130_fd_sc_hd__or4b_4 A B C D_N VGND VNB VPB VPWR X
.ends

* Black-box entry subcircuit for sky130_fd_sc_hd__clkbuf_16 abstract view
.subckt sky130_fd_sc_hd__clkbuf_16 A VGND VNB VPB VPWR X
.ends

* Black-box entry subcircuit for sky130_fd_sc_hd__nand2_1 abstract view
.subckt sky130_fd_sc_hd__nand2_1 A B VGND VNB VPB VPWR Y
.ends

* Black-box entry subcircuit for sky130_fd_sc_hd__nor4b_1 abstract view
.subckt sky130_fd_sc_hd__nor4b_1 A B C D_N VGND VNB VPB VPWR Y
.ends

* Black-box entry subcircuit for sky130_fd_sc_hd__o21ba_1 abstract view
.subckt sky130_fd_sc_hd__o21ba_1 A1 A2 B1_N VGND VNB VPB VPWR X
.ends

* Black-box entry subcircuit for sky130_fd_sc_hd__nor3_1 abstract view
.subckt sky130_fd_sc_hd__nor3_1 A B C VGND VNB VPB VPWR Y
.ends

* Black-box entry subcircuit for sky130_fd_sc_hd__and2b_1 abstract view
.subckt sky130_fd_sc_hd__and2b_1 A_N B VGND VNB VPB VPWR X
.ends

* Black-box entry subcircuit for sky130_fd_sc_hd__nand2b_1 abstract view
.subckt sky130_fd_sc_hd__nand2b_1 A_N B VGND VNB VPB VPWR Y
.ends

* Black-box entry subcircuit for sky130_fd_sc_hd__buf_4 abstract view
.subckt sky130_fd_sc_hd__buf_4 A VGND VNB VPB VPWR X
.ends

* Black-box entry subcircuit for sky130_fd_sc_hd__nand4_2 abstract view
.subckt sky130_fd_sc_hd__nand4_2 A B C D VGND VNB VPB VPWR Y
.ends

* Black-box entry subcircuit for sky130_fd_sc_hd__nand3b_1 abstract view
.subckt sky130_fd_sc_hd__nand3b_1 A_N B C VGND VNB VPB VPWR Y
.ends

* Black-box entry subcircuit for sky130_fd_sc_hd__or4b_1 abstract view
.subckt sky130_fd_sc_hd__or4b_1 A B C D_N VGND VNB VPB VPWR X
.ends

* Black-box entry subcircuit for sky130_fd_sc_hd__and4_1 abstract view
.subckt sky130_fd_sc_hd__and4_1 A B C D VGND VNB VPB VPWR X
.ends

* Black-box entry subcircuit for sky130_fd_sc_hd__nor2_2 abstract view
.subckt sky130_fd_sc_hd__nor2_2 A B VGND VNB VPB VPWR Y
.ends

* Black-box entry subcircuit for sky130_fd_sc_hd__inv_2 abstract view
.subckt sky130_fd_sc_hd__inv_2 A VGND VNB VPB VPWR Y
.ends

* Black-box entry subcircuit for sky130_fd_sc_hd__nor4b_2 abstract view
.subckt sky130_fd_sc_hd__nor4b_2 A B C D_N VGND VNB VPB VPWR Y
.ends

* Black-box entry subcircuit for sky130_fd_sc_hd__nor4_1 abstract view
.subckt sky130_fd_sc_hd__nor4_1 A B C D VGND VNB VPB VPWR Y
.ends

* Black-box entry subcircuit for sky130_fd_sc_hd__mux2_1 abstract view
.subckt sky130_fd_sc_hd__mux2_1 A0 A1 S VGND VNB VPB VPWR X
.ends

* Black-box entry subcircuit for sky130_fd_sc_hd__o21a_1 abstract view
.subckt sky130_fd_sc_hd__o21a_1 A1 A2 B1 VGND VNB VPB VPWR X
.ends

.subckt cust_rom VGND VPWR addr0[0] addr0[1] addr0[2] addr0[3] addr0[4] addr0[5] addr0[6]
+ addr0[7] clk0 cs0 dout0[0] dout0[10] dout0[11] dout0[12] dout0[13] dout0[14] dout0[15]
+ dout0[16] dout0[17] dout0[18] dout0[19] dout0[1] dout0[20] dout0[21] dout0[22] dout0[23]
+ dout0[24] dout0[25] dout0[26] dout0[27] dout0[28] dout0[29] dout0[2] dout0[30] dout0[31]
+ dout0[3] dout0[4] dout0[5] dout0[6] dout0[7] dout0[8] dout0[9]
XTAP_TAPCELL_ROW_9_148 VGND VPWR sky130_fd_sc_hd__tapvpwrvgnd_1
XFILLER_0_7_92 VGND VGND VPWR VPWR sky130_fd_sc_hd__decap_4
XFILLER_0_23_225 VGND VGND VPWR VPWR sky130_fd_sc_hd__decap_4
X_1270_ _0463_ _0552_ VGND VGND VPWR VPWR _0553_ sky130_fd_sc_hd__or2_1
XFILLER_0_3_39 VPWR VGND VPWR VGND sky130_ef_sc_hd__decap_12
XTAP_TAPCELL_ROW_14_172 VGND VPWR sky130_fd_sc_hd__tapvpwrvgnd_1
X_0985_ _0699_ _0705_ VGND VGND VPWR VPWR _0284_ sky130_fd_sc_hd__or2_1
Xfanout127 addr0_reg\[3\] VGND VGND VPWR VPWR net127 sky130_fd_sc_hd__clkbuf_2
Xfanout105 _0692_ VGND VGND VPWR VPWR net105 sky130_fd_sc_hd__buf_2
Xfanout138 _0648_ VGND VGND VPWR VPWR net138 sky130_fd_sc_hd__dlymetal6s2s_1
X_1399_ _0099_ _0101_ _0226_ _0515_ VGND VGND VPWR VPWR _0674_ sky130_fd_sc_hd__or4_1
Xfanout116 _0668_ VGND VGND VPWR VPWR net116 sky130_fd_sc_hd__clkbuf_2
XTAP_TAPCELL_ROW_37_286 VGND VPWR sky130_fd_sc_hd__tapvpwrvgnd_1
XFILLER_0_18_29 VGND VGND VPWR VPWR sky130_fd_sc_hd__decap_8
XTAP_TAPCELL_ROW_28_242 VGND VPWR sky130_fd_sc_hd__tapvpwrvgnd_1
X_0770_ _0062_ _0063_ _0066_ _0067_ VGND VGND VPWR VPWR _0069_ sky130_fd_sc_hd__or4_2
X_1253_ net137 net150 net44 _0537_ VGND VGND VPWR VPWR _0014_ sky130_fd_sc_hd__a22o_1
X_1322_ _0694_ _0163_ _0175_ _0221_ VGND VGND VPWR VPWR _0601_ sky130_fd_sc_hd__or4_1
X_1184_ _0274_ _0415_ _0472_ _0473_ VGND VGND VPWR VPWR _0474_ sky130_fd_sc_hd__or4_1
X_0968_ net105 net59 net55 net103 VGND VGND VPWR VPWR _0267_ sky130_fd_sc_hd__a22oi_4
X_0899_ _0194_ _0197_ VGND VGND VPWR VPWR _0198_ sky130_fd_sc_hd__or2_1
XFILLER_0_37_169 VGND VGND VPWR VPWR sky130_fd_sc_hd__decap_8
XFILLER_0_0_29 VPWR VGND VPWR VGND sky130_ef_sc_hd__decap_12
XTAP_TAPCELL_ROW_31_259 VGND VPWR sky130_fd_sc_hd__tapvpwrvgnd_1
X_0822_ net87 net78 net76 net89 VGND VGND VPWR VPWR _0121_ sky130_fd_sc_hd__a22o_1
XFILLER_0_9_27 VGND VGND VPWR VPWR sky130_fd_sc_hd__decap_4
XFILLER_0_28_147 VGND VGND VPWR VPWR sky130_fd_sc_hd__decap_3
XFILLER_0_3_225 VPWR VGND VPWR VGND sky130_ef_sc_hd__decap_12
X_0753_ net115 net79 _0050_ VGND VGND VPWR VPWR _0052_ sky130_fd_sc_hd__o21ba_2
X_1236_ net48 _0080_ _0459_ _0516_ VGND VGND VPWR VPWR _0522_ sky130_fd_sc_hd__or4_1
XFILLER_0_36_6 VPWR VGND VPWR VGND sky130_ef_sc_hd__decap_12
X_1305_ _0049_ _0075_ _0195_ VGND VGND VPWR VPWR _0585_ sky130_fd_sc_hd__or3_1
X_1167_ net137 net149 net44 _0457_ VGND VGND VPWR VPWR _0008_ sky130_fd_sc_hd__a22o_1
X_1098_ _0390_ _0391_ VGND VGND VPWR VPWR _0392_ sky130_fd_sc_hd__or2_1
XTAP_TAPCELL_ROW_22_215 VGND VPWR sky130_fd_sc_hd__tapvpwrvgnd_1
XFILLER_0_19_169 VGND VGND VPWR VPWR sky130_fd_sc_hd__decap_8
XTAP_TAPCELL_ROW_45_329 VGND VPWR sky130_fd_sc_hd__tapvpwrvgnd_1
Xwire100 net101 VGND VGND VPWR VPWR net100 sky130_fd_sc_hd__clkbuf_1
XFILLER_0_25_139 VGND VGND VPWR VPWR sky130_fd_sc_hd__fill_1
XFILLER_0_18_191 VGND VGND VPWR VPWR sky130_fd_sc_hd__decap_4
X_1021_ _0223_ _0310_ _0311_ _0312_ VGND VGND VPWR VPWR _0319_ sky130_fd_sc_hd__or4_1
XFILLER_0_16_117 VGND VGND VPWR VPWR sky130_fd_sc_hd__decap_6
X_0805_ net96 net79 net72 net98 VGND VGND VPWR VPWR _0104_ sky130_fd_sc_hd__a22o_1
XFILLER_0_24_161 VGND VGND VPWR VPWR sky130_fd_sc_hd__fill_2
X_0736_ net129 net127 net131 net133 VGND VGND VPWR VPWR _0035_ sky130_fd_sc_hd__and4bb_1
XFILLER_0_34_3 VPWR VGND VPWR VGND sky130_ef_sc_hd__decap_12
X_1219_ _0193_ _0218_ _0269_ _0286_ VGND VGND VPWR VPWR _0506_ sky130_fd_sc_hd__or4_1
XFILLER_0_47_253 VPWR VGND VPWR VGND sky130_ef_sc_hd__decap_12
XFILLER_0_47_231 VGND VGND VPWR VPWR sky130_fd_sc_hd__decap_3
Xhold30 net11 VGND VGND VPWR VPWR net168 sky130_fd_sc_hd__dlygate4sd3_1
XFILLER_0_30_197 VGND VGND VPWR VPWR sky130_fd_sc_hd__fill_2
XFILLER_0_26_18 VGND VGND VPWR VPWR sky130_fd_sc_hd__decap_8
XFILLER_0_26_29 VGND VGND VPWR VPWR sky130_fd_sc_hd__decap_6
XTAP_TAPCELL_ROW_41_310 VGND VPWR sky130_fd_sc_hd__tapvpwrvgnd_1
XFILLER_0_38_253 VGND VGND VPWR VPWR sky130_fd_sc_hd__decap_6
XANTENNA_5 _0088_ VGND VGND VPWR VPWR sky130_fd_sc_hd__diode_2
XFILLER_0_21_175 VGND VGND VPWR VPWR sky130_fd_sc_hd__decap_8
X_1004_ _0287_ _0292_ _0302_ VGND VGND VPWR VPWR _0303_ sky130_fd_sc_hd__or3_1
X_0719_ net128 net133 net132 net130 VGND VGND VPWR VPWR _0693_ sky130_fd_sc_hd__and4bb_1
XFILLER_0_12_197 VPWR VGND VPWR VGND sky130_ef_sc_hd__decap_12
Xoutput31 net31 VGND VGND VPWR VPWR dout0[29] sky130_fd_sc_hd__buf_2
Xoutput20 net20 VGND VGND VPWR VPWR dout0[19] sky130_fd_sc_hd__buf_2
XFILLER_0_26_223 VGND VGND VPWR VPWR sky130_fd_sc_hd__decap_6
XFILLER_0_32_204 VGND VGND VPWR VPWR sky130_fd_sc_hd__decap_4
XFILLER_0_4_194 VGND VGND VPWR VPWR sky130_fd_sc_hd__fill_2
XTAP_TAPCELL_ROW_9_149 VGND VPWR sky130_fd_sc_hd__tapvpwrvgnd_1
XFILLER_0_2_109 VPWR VGND VPWR VGND sky130_ef_sc_hd__decap_12
XFILLER_0_31_281 VGND VGND VPWR VPWR sky130_fd_sc_hd__fill_1
XFILLER_0_13_41 VGND VGND VPWR VPWR sky130_fd_sc_hd__fill_1
XTAP_TAPCELL_ROW_14_173 VGND VPWR sky130_fd_sc_hd__tapvpwrvgnd_1
X_0984_ _0140_ _0239_ _0282_ VGND VGND VPWR VPWR _0283_ sky130_fd_sc_hd__or3_1
XFILLER_0_14_226 VGND VGND VPWR VPWR sky130_fd_sc_hd__decap_8
Xfanout128 addr0_reg\[3\] VGND VGND VPWR VPWR net128 sky130_fd_sc_hd__buf_1
X_1398_ _0660_ _0669_ _0671_ _0672_ VGND VGND VPWR VPWR _0673_ sky130_fd_sc_hd__or4_1
Xfanout106 _0690_ VGND VGND VPWR VPWR net106 sky130_fd_sc_hd__buf_2
Xfanout117 _0658_ VGND VGND VPWR VPWR net117 sky130_fd_sc_hd__clkbuf_4
XTAP_TAPCELL_ROW_37_287 VGND VPWR sky130_fd_sc_hd__tapvpwrvgnd_1
XTAP_TAPCELL_ROW_5_130 VGND VPWR sky130_fd_sc_hd__tapvpwrvgnd_1
XFILLER_0_13_281 VGND VGND VPWR VPWR sky130_fd_sc_hd__fill_1
XFILLER_0_18_19 VGND VGND VPWR VPWR sky130_fd_sc_hd__fill_1
XFILLER_0_34_29 VGND VGND VPWR VPWR sky130_fd_sc_hd__fill_1
XTAP_TAPCELL_ROW_28_243 VGND VPWR sky130_fd_sc_hd__tapvpwrvgnd_1
X_1252_ _0518_ _0528_ _0534_ _0536_ VGND VGND VPWR VPWR _0537_ sky130_fd_sc_hd__or4_1
X_1321_ _0067_ _0068_ VGND VGND VPWR VPWR _0600_ sky130_fd_sc_hd__or2_1
XFILLER_0_24_62 VPWR VGND VPWR VGND sky130_ef_sc_hd__decap_12
X_1183_ _0071_ _0084_ _0086_ _0219_ VGND VGND VPWR VPWR _0473_ sky130_fd_sc_hd__or4_1
X_0967_ _0258_ _0259_ _0261_ _0262_ VGND VGND VPWR VPWR _0266_ sky130_fd_sc_hd__or4_1
XFILLER_0_6_212 VGND VGND VPWR VPWR sky130_fd_sc_hd__fill_2
XFILLER_0_10_251 VGND VGND VPWR VPWR sky130_fd_sc_hd__fill_1
XPHY_EDGE_ROW_12_Right_12 VGND VGND VPWR VPWR sky130_fd_sc_hd__decap_3
X_0898_ _0195_ _0196_ VGND VGND VPWR VPWR _0197_ sky130_fd_sc_hd__or2_1
XFILLER_0_4_83 VGND VGND VPWR VPWR sky130_fd_sc_hd__fill_1
XTAP_TAPCELL_ROW_2_111 VGND VPWR sky130_fd_sc_hd__tapvpwrvgnd_1
XPHY_EDGE_ROW_21_Right_21 VGND VGND VPWR VPWR sky130_fd_sc_hd__decap_3
XFILLER_0_37_126 VGND VGND VPWR VPWR sky130_fd_sc_hd__fill_2
XPHY_EDGE_ROW_30_Right_30 VGND VGND VPWR VPWR sky130_fd_sc_hd__decap_3
X_0821_ _0118_ _0119_ VGND VGND VPWR VPWR _0120_ sky130_fd_sc_hd__or2_2
X_0752_ net123 net121 net119 net125 VGND VGND VPWR VPWR _0051_ sky130_fd_sc_hd__and4bb_1
XFILLER_0_28_126 VGND VGND VPWR VPWR sky130_fd_sc_hd__decap_4
XFILLER_0_3_237 VPWR VGND VPWR VGND sky130_ef_sc_hd__decap_12
X_1166_ _0445_ _0450_ _0452_ _0456_ VGND VGND VPWR VPWR _0457_ sky130_fd_sc_hd__or4_1
X_1235_ _0040_ _0068_ _0223_ _0273_ VGND VGND VPWR VPWR _0521_ sky130_fd_sc_hd__or4_1
X_1304_ _0177_ _0250_ _0410_ _0418_ VGND VGND VPWR VPWR _0584_ sky130_fd_sc_hd__or4_1
X_1097_ _0090_ _0091_ _0271_ VGND VGND VPWR VPWR _0391_ sky130_fd_sc_hd__or3b_1
XFILLER_0_34_129 VGND VGND VPWR VPWR sky130_fd_sc_hd__decap_8
XFILLER_0_2_281 VGND VGND VPWR VPWR sky130_fd_sc_hd__fill_1
Xwire101 _0700_ VGND VGND VPWR VPWR net101 sky130_fd_sc_hd__clkbuf_1
Xwire112 _0685_ VGND VGND VPWR VPWR net112 sky130_fd_sc_hd__clkbuf_1
X_1020_ _0313_ _0314_ _0315_ _0317_ VGND VGND VPWR VPWR _0318_ sky130_fd_sc_hd__or4_1
X_0735_ net131 net133 net129 net127 VGND VGND VPWR VPWR _0034_ sky130_fd_sc_hd__and4b_1
X_0804_ net106 net79 net71 net108 VGND VGND VPWR VPWR _0103_ sky130_fd_sc_hd__a22o_2
XFILLER_0_24_184 VPWR VGND VPWR VGND sky130_ef_sc_hd__decap_12
XFILLER_0_1_51 VGND VGND VPWR VPWR sky130_fd_sc_hd__decap_4
X_1218_ _0695_ _0327_ _0353_ _0410_ VGND VGND VPWR VPWR _0505_ sky130_fd_sc_hd__or4_1
X_1149_ _0062_ _0075_ _0085_ _0180_ VGND VGND VPWR VPWR _0441_ sky130_fd_sc_hd__or4_1
XFILLER_0_27_3 VGND VGND VPWR VPWR sky130_fd_sc_hd__fill_1
XFILLER_0_47_265 VGND VGND VPWR VPWR sky130_fd_sc_hd__decap_8
Xhold31 net38 VGND VGND VPWR VPWR net169 sky130_fd_sc_hd__dlygate4sd3_1
Xhold20 net39 VGND VGND VPWR VPWR net158 sky130_fd_sc_hd__dlygate4sd3_1
XFILLER_0_42_29 VGND VGND VPWR VPWR sky130_fd_sc_hd__fill_2
XANTENNA_6 _0093_ VGND VGND VPWR VPWR sky130_fd_sc_hd__diode_2
XFILLER_0_21_121 VPWR VGND VPWR VGND sky130_ef_sc_hd__decap_12
XFILLER_0_6_29 VPWR VGND VPWR VGND sky130_ef_sc_hd__decap_12
X_1003_ _0293_ _0295_ _0296_ _0301_ VGND VGND VPWR VPWR _0302_ sky130_fd_sc_hd__or4_1
XFILLER_0_16_74 VGND VGND VPWR VPWR sky130_fd_sc_hd__fill_2
XFILLER_0_16_85 VPWR VGND VPWR VGND sky130_ef_sc_hd__decap_12
X_0718_ net130 net134 net131 net127 VGND VGND VPWR VPWR _0692_ sky130_fd_sc_hd__and4bb_1
XPHY_EDGE_ROW_6_Right_6 VGND VGND VPWR VPWR sky130_fd_sc_hd__decap_3
XFILLER_0_12_154 VGND VGND VPWR VPWR sky130_fd_sc_hd__decap_8
XFILLER_0_35_279 VGND VGND VPWR VPWR sky130_fd_sc_hd__fill_1
XFILLER_0_7_181 VGND VGND VPWR VPWR sky130_fd_sc_hd__decap_4
Xoutput21 net21 VGND VGND VPWR VPWR dout0[1] sky130_fd_sc_hd__buf_2
Xoutput10 net10 VGND VGND VPWR VPWR dout0[0] sky130_fd_sc_hd__buf_2
Xoutput32 net32 VGND VGND VPWR VPWR dout0[2] sky130_fd_sc_hd__buf_2
XFILLER_0_5_129 VGND VGND VPWR VPWR sky130_fd_sc_hd__decap_6
XFILLER_0_43_61 VPWR VGND VPWR VGND sky130_ef_sc_hd__decap_12
XFILLER_0_43_50 VGND VGND VPWR VPWR sky130_fd_sc_hd__fill_2
XFILLER_0_17_213 VGND VGND VPWR VPWR sky130_fd_sc_hd__fill_1
XFILLER_0_23_205 VGND VGND VPWR VPWR sky130_fd_sc_hd__fill_1
XFILLER_0_13_86 VGND VGND VPWR VPWR sky130_fd_sc_hd__fill_2
XTAP_TAPCELL_ROW_14_174 VGND VPWR sky130_fd_sc_hd__tapvpwrvgnd_1
X_0983_ _0091_ net47 _0099_ VGND VGND VPWR VPWR _0282_ sky130_fd_sc_hd__or3_1
Xfanout107 _0690_ VGND VGND VPWR VPWR net107 sky130_fd_sc_hd__clkbuf_2
Xfanout129 addr0_reg\[2\] VGND VGND VPWR VPWR net129 sky130_fd_sc_hd__clkbuf_2
Xfanout118 _0658_ VGND VGND VPWR VPWR net118 sky130_fd_sc_hd__clkbuf_2
X_1397_ _0703_ _0103_ _0106_ _0235_ VGND VGND VPWR VPWR _0672_ sky130_fd_sc_hd__or4_1
XTAP_TAPCELL_ROW_37_288 VGND VPWR sky130_fd_sc_hd__tapvpwrvgnd_1
XTAP_TAPCELL_ROW_28_244 VGND VPWR sky130_fd_sc_hd__tapvpwrvgnd_1
X_1320_ _0236_ _0252_ _0256_ VGND VGND VPWR VPWR _0599_ sky130_fd_sc_hd__or3_1
X_1182_ _0107_ _0194_ _0212_ _0314_ VGND VGND VPWR VPWR _0472_ sky130_fd_sc_hd__or4_1
X_1251_ _0076_ _0124_ _0251_ _0535_ VGND VGND VPWR VPWR _0536_ sky130_fd_sc_hd__or4_1
XTAP_TAPCELL_ROW_19_200 VGND VPWR sky130_fd_sc_hd__tapvpwrvgnd_1
XFILLER_0_24_74 VGND VGND VPWR VPWR sky130_fd_sc_hd__decap_8
XFILLER_0_24_85 VGND VGND VPWR VPWR sky130_fd_sc_hd__decap_4
X_0966_ _0259_ _0262_ VGND VGND VPWR VPWR _0265_ sky130_fd_sc_hd__or2_1
XFILLER_0_6_279 VGND VGND VPWR VPWR sky130_fd_sc_hd__decap_3
X_0897_ net62 net60 _0687_ VGND VGND VPWR VPWR _0196_ sky130_fd_sc_hd__o21ba_2
X_1449_ clknet_2_1__leaf_clk0 _0027_ VGND VGND VPWR VPWR net29 sky130_fd_sc_hd__dfxtp_1
XTAP_TAPCELL_ROW_2_112 VGND VPWR sky130_fd_sc_hd__tapvpwrvgnd_1
XFILLER_0_45_18 VPWR VGND VPWR VGND sky130_ef_sc_hd__decap_12
XFILLER_0_28_105 VGND VGND VPWR VPWR sky130_fd_sc_hd__fill_1
XFILLER_0_36_193 VGND VGND VPWR VPWR sky130_fd_sc_hd__decap_3
X_0751_ net129 net127 net131 net133 VGND VGND VPWR VPWR _0050_ sky130_fd_sc_hd__or4_4
X_0820_ net96 net77 net75 net98 VGND VGND VPWR VPWR _0119_ sky130_fd_sc_hd__a22o_2
XFILLER_0_3_249 VPWR VGND VPWR VGND sky130_ef_sc_hd__decap_12
XFILLER_0_3_205 VPWR VGND VPWR VGND sky130_ef_sc_hd__decap_12
X_1303_ net137 net162 net44 _0583_ VGND VGND VPWR VPWR _0018_ sky130_fd_sc_hd__a22o_1
X_1234_ _0230_ _0249_ _0253_ _0519_ VGND VGND VPWR VPWR _0520_ sky130_fd_sc_hd__or4_1
X_1096_ _0686_ _0039_ _0267_ _0268_ VGND VGND VPWR VPWR _0390_ sky130_fd_sc_hd__or4bb_1
X_1165_ _0448_ _0449_ _0453_ _0455_ VGND VGND VPWR VPWR _0456_ sky130_fd_sc_hd__or4_1
XFILLER_0_27_160 VGND VGND VPWR VPWR sky130_fd_sc_hd__decap_8
XFILLER_0_42_141 VGND VGND VPWR VPWR sky130_fd_sc_hd__fill_1
X_0949_ net53 net49 _0687_ VGND VGND VPWR VPWR _0248_ sky130_fd_sc_hd__o21ba_2
XFILLER_0_25_119 VGND VGND VPWR VPWR sky130_fd_sc_hd__decap_6
XFILLER_0_33_185 VPWR VGND VPWR VGND sky130_ef_sc_hd__decap_12
XPHY_EDGE_ROW_28_Left_76 VGND VGND VPWR VPWR sky130_fd_sc_hd__decap_3
X_0803_ net47 _0098_ _0099_ _0100_ VGND VGND VPWR VPWR _0102_ sky130_fd_sc_hd__or4_1
X_0734_ _0698_ _0032_ VGND VGND VPWR VPWR _0033_ sky130_fd_sc_hd__or2_1
XFILLER_0_24_130 VGND VGND VPWR VPWR sky130_fd_sc_hd__fill_1
XFILLER_0_24_141 VPWR VGND VPWR VGND sky130_ef_sc_hd__decap_12
XFILLER_0_46_83 VGND VGND VPWR VPWR sky130_fd_sc_hd__fill_1
X_1217_ _0399_ _0426_ _0503_ VGND VGND VPWR VPWR _0504_ sky130_fd_sc_hd__or3_1
X_1148_ _0099_ _0118_ _0132_ _0138_ VGND VGND VPWR VPWR _0440_ sky130_fd_sc_hd__or4_1
X_1079_ _0104_ _0139_ VGND VGND VPWR VPWR _0374_ sky130_fd_sc_hd__or2_1
XFILLER_0_47_244 VGND VGND VPWR VPWR sky130_fd_sc_hd__fill_1
XFILLER_0_15_130 VGND VGND VPWR VPWR sky130_fd_sc_hd__decap_4
Xhold32 net14 VGND VGND VPWR VPWR net170 sky130_fd_sc_hd__dlygate4sd3_1
Xhold10 net31 VGND VGND VPWR VPWR net148 sky130_fd_sc_hd__dlygate4sd3_1
Xhold21 net36 VGND VGND VPWR VPWR net159 sky130_fd_sc_hd__dlygate4sd3_1
XFILLER_0_38_211 VGND VGND VPWR VPWR sky130_fd_sc_hd__decap_6
XANTENNA_7 _0094_ VGND VGND VPWR VPWR sky130_fd_sc_hd__diode_2
XFILLER_0_21_133 VGND VGND VPWR VPWR sky130_fd_sc_hd__fill_2
XFILLER_0_16_97 VGND VGND VPWR VPWR sky130_fd_sc_hd__decap_3
X_1002_ _0297_ _0298_ _0299_ _0300_ VGND VGND VPWR VPWR _0301_ sky130_fd_sc_hd__or4_1
XFILLER_0_44_225 VPWR VGND VPWR VGND sky130_ef_sc_hd__decap_12
XFILLER_0_32_85 VGND VGND VPWR VPWR sky130_fd_sc_hd__fill_1
XFILLER_0_8_105 VGND VGND VPWR VPWR sky130_fd_sc_hd__decap_8
X_0717_ net111 net108 net106 net116 VGND VGND VPWR VPWR _0691_ sky130_fd_sc_hd__a22o_2
XFILLER_0_35_203 VPWR VGND VPWR VGND sky130_ef_sc_hd__decap_12
Xoutput33 net33 VGND VGND VPWR VPWR dout0[30] sky130_fd_sc_hd__buf_2
Xoutput11 net11 VGND VGND VPWR VPWR dout0[10] sky130_fd_sc_hd__buf_2
Xoutput22 net22 VGND VGND VPWR VPWR dout0[20] sky130_fd_sc_hd__buf_2
XFILLER_0_9_3 VPWR VGND VPWR VGND sky130_ef_sc_hd__decap_12
XFILLER_0_41_239 VGND VGND VPWR VPWR sky130_fd_sc_hd__decap_6
XFILLER_0_34_280 VGND VGND VPWR VPWR sky130_fd_sc_hd__fill_2
XFILLER_0_27_52 VGND VGND VPWR VPWR sky130_fd_sc_hd__decap_4
XFILLER_0_43_73 VGND VGND VPWR VPWR sky130_fd_sc_hd__decap_8
XFILLER_0_43_40 VGND VGND VPWR VPWR sky130_fd_sc_hd__decap_6
XFILLER_0_32_239 VGND VGND VPWR VPWR sky130_fd_sc_hd__fill_1
XFILLER_0_4_141 VGND VGND VPWR VPWR sky130_fd_sc_hd__fill_1
XPHY_EDGE_ROW_15_Left_63 VGND VGND VPWR VPWR sky130_fd_sc_hd__decap_3
XFILLER_0_17_225 VPWR VGND VPWR VGND sky130_ef_sc_hd__decap_12
XFILLER_0_7_51 VGND VGND VPWR VPWR sky130_fd_sc_hd__decap_4
XFILLER_0_16_280 VGND VGND VPWR VPWR sky130_fd_sc_hd__fill_2
X_0982_ _0144_ _0208_ _0279_ net9 VGND VGND VPWR VPWR _0281_ sky130_fd_sc_hd__o31a_1
XFILLER_0_14_217 VGND VGND VPWR VPWR sky130_fd_sc_hd__decap_3
XTAP_TAPCELL_ROW_14_175 VGND VPWR sky130_fd_sc_hd__tapvpwrvgnd_1
Xfanout108 _0689_ VGND VGND VPWR VPWR net108 sky130_fd_sc_hd__buf_2
XFILLER_0_1_111 VGND VGND VPWR VPWR sky130_fd_sc_hd__fill_1
Xfanout119 addr0_reg\[7\] VGND VGND VPWR VPWR net119 sky130_fd_sc_hd__clkbuf_2
XFILLER_0_22_250 VGND VGND VPWR VPWR sky130_fd_sc_hd__fill_2
XFILLER_0_22_261 VGND VGND VPWR VPWR sky130_fd_sc_hd__fill_2
XFILLER_0_38_95 VPWR VGND VPWR VGND sky130_ef_sc_hd__decap_12
X_1396_ _0120_ _0200_ _0205_ _0670_ VGND VGND VPWR VPWR _0671_ sky130_fd_sc_hd__or4_1
XTAP_TAPCELL_ROW_37_289 VGND VPWR sky130_fd_sc_hd__tapvpwrvgnd_1
XFILLER_0_9_233 VGND VGND VPWR VPWR sky130_fd_sc_hd__fill_1
XPHY_EDGE_ROW_0_Left_48 VGND VGND VPWR VPWR sky130_fd_sc_hd__decap_3
XTAP_TAPCELL_ROW_28_245 VGND VPWR sky130_fd_sc_hd__tapvpwrvgnd_1
XTAP_TAPCELL_ROW_11_156 VGND VPWR sky130_fd_sc_hd__tapvpwrvgnd_1
X_1181_ _0283_ _0459_ _0469_ _0470_ VGND VGND VPWR VPWR _0471_ sky130_fd_sc_hd__or4_1
X_1250_ _0166_ _0168_ _0186_ _0196_ VGND VGND VPWR VPWR _0535_ sky130_fd_sc_hd__or4_1
XFILLER_0_46_139 VGND VGND VPWR VPWR sky130_fd_sc_hd__fill_1
XFILLER_0_39_191 VPWR VGND VPWR VGND sky130_ef_sc_hd__decap_12
X_0965_ _0258_ _0261_ VGND VGND VPWR VPWR _0264_ sky130_fd_sc_hd__or2_1
X_0896_ net113 net62 net61 net117 VGND VGND VPWR VPWR _0195_ sky130_fd_sc_hd__a22o_2
X_1448_ clknet_2_1__leaf_clk0 _0026_ VGND VGND VPWR VPWR net28 sky130_fd_sc_hd__dfxtp_1
XFILLER_0_4_85 VPWR VGND VPWR VGND sky130_ef_sc_hd__decap_12
XFILLER_0_4_41 VPWR VGND VPWR VGND sky130_ef_sc_hd__decap_12
XTAP_TAPCELL_ROW_2_113 VGND VPWR sky130_fd_sc_hd__tapvpwrvgnd_1
XFILLER_0_10_253 VGND VGND VPWR VPWR sky130_fd_sc_hd__decap_3
X_1379_ _0162_ _0551_ _0578_ _0653_ VGND VGND VPWR VPWR _0654_ sky130_fd_sc_hd__or4_1
XTAP_TAPCELL_ROW_25_226 VGND VPWR sky130_fd_sc_hd__tapvpwrvgnd_1
XFILLER_0_37_139 VGND VGND VPWR VPWR sky130_fd_sc_hd__fill_2
XTAP_TAPCELL_ROW_33_270 VGND VPWR sky130_fd_sc_hd__tapvpwrvgnd_1
XFILLER_0_28_139 VGND VGND VPWR VPWR sky130_fd_sc_hd__fill_1
Xfanout90 _0037_ VGND VGND VPWR VPWR net90 sky130_fd_sc_hd__dlymetal6s2s_1
XFILLER_0_3_217 VGND VGND VPWR VPWR sky130_fd_sc_hd__decap_6
XFILLER_0_10_33 VGND VGND VPWR VPWR sky130_fd_sc_hd__fill_1
X_0750_ net110 net94 net92 net115 VGND VGND VPWR VPWR _0049_ sky130_fd_sc_hd__a22o_2
X_1302_ _0338_ _0577_ _0578_ _0582_ VGND VGND VPWR VPWR _0583_ sky130_fd_sc_hd__or4_1
XFILLER_0_19_20 VGND VGND VPWR VPWR sky130_fd_sc_hd__decap_3
X_1233_ _0072_ _0113_ _0114_ _0180_ VGND VGND VPWR VPWR _0519_ sky130_fd_sc_hd__or4_1
XTAP_TAPCELL_ROW_47_340 VGND VPWR sky130_fd_sc_hd__tapvpwrvgnd_1
X_1164_ _0124_ _0300_ _0316_ _0454_ VGND VGND VPWR VPWR _0455_ sky130_fd_sc_hd__or4_1
X_1095_ _0230_ _0235_ _0254_ VGND VGND VPWR VPWR _0389_ sky130_fd_sc_hd__or3_1
X_0948_ net114 net52 net49 net118 VGND VGND VPWR VPWR _0247_ sky130_fd_sc_hd__a22o_2
XTAP_TAPCELL_ROW_30_251 VGND VPWR sky130_fd_sc_hd__tapvpwrvgnd_1
XFILLER_0_42_186 VGND VGND VPWR VPWR sky130_fd_sc_hd__decap_6
XFILLER_0_42_164 VPWR VGND VPWR VGND sky130_ef_sc_hd__decap_12
X_0879_ _0173_ _0174_ _0175_ _0176_ VGND VGND VPWR VPWR _0178_ sky130_fd_sc_hd__or4_1
XFILLER_0_33_197 VGND VGND VPWR VPWR sky130_fd_sc_hd__decap_4
XFILLER_0_0_209 VPWR VGND VPWR VGND sky130_ef_sc_hd__decap_12
XPHY_EDGE_ROW_3_Left_51 VGND VGND VPWR VPWR sky130_fd_sc_hd__decap_3
XTAP_TAPCELL_ROW_44_321 VGND VPWR sky130_fd_sc_hd__tapvpwrvgnd_1
X_0802_ _0098_ _0100_ VGND VGND VPWR VPWR _0101_ sky130_fd_sc_hd__or2_2
X_0733_ _0699_ _0702_ _0704_ _0705_ VGND VGND VPWR VPWR _0032_ sky130_fd_sc_hd__or4_2
XFILLER_0_24_153 VGND VGND VPWR VPWR sky130_fd_sc_hd__decap_8
XFILLER_0_24_197 VGND VGND VPWR VPWR sky130_fd_sc_hd__fill_1
X_1216_ _0148_ _0149_ _0150_ VGND VGND VPWR VPWR _0503_ sky130_fd_sc_hd__or3_2
X_1147_ _0193_ _0194_ _0249_ _0259_ VGND VGND VPWR VPWR _0439_ sky130_fd_sc_hd__or4_1
X_1078_ _0126_ _0238_ VGND VGND VPWR VPWR _0373_ sky130_fd_sc_hd__or2_1
XFILLER_0_30_101 VGND VGND VPWR VPWR sky130_fd_sc_hd__fill_1
XFILLER_0_15_153 VGND VGND VPWR VPWR sky130_fd_sc_hd__fill_1
Xhold11 net40 VGND VGND VPWR VPWR net149 sky130_fd_sc_hd__dlygate4sd3_1
XPHY_EDGE_ROW_45_Left_93 VGND VGND VPWR VPWR sky130_fd_sc_hd__decap_3
XFILLER_0_30_123 VGND VGND VPWR VPWR sky130_fd_sc_hd__decap_3
Xhold22 net20 VGND VGND VPWR VPWR net160 sky130_fd_sc_hd__dlygate4sd3_1
XFILLER_0_38_223 VPWR VGND VPWR VGND sky130_ef_sc_hd__decap_12
XANTENNA_8 _0094_ VGND VGND VPWR VPWR sky130_fd_sc_hd__diode_2
XFILLER_0_21_167 VGND VGND VPWR VPWR sky130_fd_sc_hd__fill_1
X_1001_ _0173_ _0174_ _0176_ VGND VGND VPWR VPWR _0300_ sky130_fd_sc_hd__or3_2
XFILLER_0_29_245 VGND VGND VPWR VPWR sky130_fd_sc_hd__decap_4
XFILLER_0_16_65 VGND VGND VPWR VPWR sky130_fd_sc_hd__fill_1
XFILLER_0_44_237 VGND VGND VPWR VPWR sky130_fd_sc_hd__decap_4
X_0716_ net129 net131 net133 net127 VGND VGND VPWR VPWR _0690_ sky130_fd_sc_hd__and4bb_1
XFILLER_0_12_123 VGND VGND VPWR VPWR sky130_fd_sc_hd__fill_1
XFILLER_0_12_167 VPWR VGND VPWR VGND sky130_ef_sc_hd__decap_12
XFILLER_0_32_3 VGND VGND VPWR VPWR sky130_fd_sc_hd__fill_1
XFILLER_0_35_215 VGND VGND VPWR VPWR sky130_fd_sc_hd__decap_4
Xoutput34 net34 VGND VGND VPWR VPWR dout0[31] sky130_fd_sc_hd__buf_2
XFILLER_0_43_281 VGND VGND VPWR VPWR sky130_fd_sc_hd__fill_1
Xoutput12 net12 VGND VGND VPWR VPWR dout0[11] sky130_fd_sc_hd__buf_2
Xoutput23 net23 VGND VGND VPWR VPWR dout0[21] sky130_fd_sc_hd__buf_2
XFILLER_0_27_31 VGND VGND VPWR VPWR sky130_fd_sc_hd__decap_6
XFILLER_0_27_86 VPWR VGND VPWR VGND sky130_ef_sc_hd__decap_12
XFILLER_0_17_237 VGND VGND VPWR VPWR sky130_fd_sc_hd__decap_3
XFILLER_0_4_197 VPWR VGND VPWR VGND sky130_ef_sc_hd__decap_12
XFILLER_0_4_186 VGND VGND VPWR VPWR sky130_fd_sc_hd__decap_8
XFILLER_0_4_175 VGND VGND VPWR VPWR sky130_fd_sc_hd__decap_6
XFILLER_0_25_281 VGND VGND VPWR VPWR sky130_fd_sc_hd__fill_1
XFILLER_0_7_96 VGND VGND VPWR VPWR sky130_fd_sc_hd__fill_1
XTAP_TAPCELL_ROW_8_141 VGND VPWR sky130_fd_sc_hd__tapvpwrvgnd_1
X_0981_ _0208_ _0279_ net9 VGND VGND VPWR VPWR _0280_ sky130_fd_sc_hd__o21ai_1
XPHY_EDGE_ROW_32_Left_80 VGND VGND VPWR VPWR sky130_fd_sc_hd__decap_3
XFILLER_0_38_85 VGND VGND VPWR VPWR sky130_fd_sc_hd__fill_2
X_1395_ _0686_ _0107_ VGND VGND VPWR VPWR _0670_ sky130_fd_sc_hd__or2_1
Xfanout109 _0689_ VGND VGND VPWR VPWR net109 sky130_fd_sc_hd__clkbuf_2
XFILLER_0_1_167 VGND VGND VPWR VPWR sky130_fd_sc_hd__fill_1
XFILLER_0_9_223 VGND VGND VPWR VPWR sky130_fd_sc_hd__fill_1
XTAP_TAPCELL_ROW_11_157 VGND VPWR sky130_fd_sc_hd__tapvpwrvgnd_1
X_1180_ _0688_ _0694_ _0236_ _0458_ VGND VGND VPWR VPWR _0470_ sky130_fd_sc_hd__or4_1
XFILLER_0_40_20 VGND VGND VPWR VPWR sky130_fd_sc_hd__fill_1
X_0964_ _0261_ _0262_ VGND VGND VPWR VPWR _0263_ sky130_fd_sc_hd__or2_1
XFILLER_0_10_221 VGND VGND VPWR VPWR sky130_fd_sc_hd__decap_8
X_0895_ net102 net63 net61 net104 VGND VGND VPWR VPWR _0194_ sky130_fd_sc_hd__a22o_2
X_1447_ clknet_2_3__leaf_clk0 _0025_ VGND VGND VPWR VPWR net27 sky130_fd_sc_hd__dfxtp_1
X_1378_ _0040_ _0347_ _0433_ _0595_ VGND VGND VPWR VPWR _0653_ sky130_fd_sc_hd__or4_1